<?xml version="1.0" encoding="UTF-8"?>

<!-- generated on 1/2/2018 4:53:24 PM by Netedit Version 0.30.0
<?xml version="1.0" encoding="UTF-8"?>

<configuration xmlns:xsi="http://www.w3.org/2001/XMLSchema-instance" xsi:noNamespaceSchemaLocation="http://sumo.dlr.de/xsd/netconvertConfiguration.xsd">

    <input>
        <sumo-net-file value="moco.net.xml"/>
    </input>

    <output>
        <output-file value="moco.net.xml"/>
    </output>

    <processing>
        <no-turnarounds value="true"/>
        <offset.disable-normalization value="true"/>
        <lefthand value="false"/>
        <junctions.corner-detail value="0"/>
        <rectangular-lane-cut value="false"/>
    </processing>

</configuration>
-->

<net version="0.27" xmlns:xsi="http://www.w3.org/2001/XMLSchema-instance" xsi:noNamespaceSchemaLocation="http://sumo.dlr.de/xsd/net_file.xsd">

    <location netOffset="-313947.10,-4324493.22" convBoundary="0.00,-45.13,3209.18,788.18" origBoundary="-77.15,39.05,-77.11,39.06" projParameter="+proj=utm +zone=18 +ellps=WGS84 +datum=WGS84 +units=m +no_defs"/>

    <edge id=":-50846720#1.35_0" function="internal">
        <lane id=":-50846720#1.35_0_0" index="0" disallow="tram rail_urban rail rail_electric ship" speed="22.22" length="3.49" shape="2643.93,292.19 2647.09,289.05"/>
        <lane id=":-50846720#1.35_0_1" index="1" disallow="tram rail_urban rail rail_electric ship" speed="22.22" length="3.49" shape="2643.93,292.19 2646.93,292.34"/>
        <lane id=":-50846720#1.35_0_2" index="2" disallow="tram rail_urban rail rail_electric ship" speed="22.22" length="3.49" shape="2643.76,295.49 2646.76,295.64"/>
    </edge>
    <edge id=":-50846720#6.20_0" function="internal">
        <lane id=":-50846720#6.20_0_0" index="0" disallow="tram rail_urban rail rail_electric ship" speed="22.22" length="4.43" shape="1866.45,299.12 1868.93,295.41"/>
        <lane id=":-50846720#6.20_0_1" index="1" disallow="tram rail_urban rail rail_electric ship" speed="22.22" length="4.43" shape="1866.45,299.12 1869.42,298.68"/>
        <lane id=":-50846720#6.20_0_2" index="2" disallow="tram rail_urban rail rail_electric ship" speed="22.22" length="4.43" shape="1866.94,302.38 1869.91,301.94"/>
        <lane id=":-50846720#6.20_0_3" index="3" disallow="tram rail_urban rail rail_electric ship" speed="22.22" length="4.43" shape="1866.94,302.38 1870.40,305.20"/>
        <lane id=":-50846720#6.20_0_4" index="4" disallow="tram rail_urban rail rail_electric ship" speed="22.22" length="4.43" shape="1866.94,302.38 1870.89,308.47"/>
    </edge>
    <edge id=":-50846769.75_0" function="internal">
        <lane id=":-50846769.75_0_0" index="0" disallow="tram rail_urban rail rail_electric ship" speed="22.22" length="3.00" shape="1292.59,386.70 1295.33,387.94"/>
        <lane id=":-50846769.75_0_1" index="1" disallow="tram rail_urban rail rail_electric ship" speed="22.22" length="3.00" shape="1291.23,389.71 1293.97,390.94"/>
    </edge>
    <edge id=":116069075#0.376_0" function="internal">
        <lane id=":116069075#0.376_0_0" index="0" disallow="tram rail_urban rail rail_electric bicycle pedestrian ship" speed="27.78" length="3.37" shape="551.00,502.07 553.89,501.26"/>
        <lane id=":116069075#0.376_0_1" index="1" disallow="tram rail_urban rail rail_electric bicycle pedestrian ship" speed="27.78" length="3.37" shape="551.95,505.23 554.84,504.42"/>
        <lane id=":116069075#0.376_0_2" index="2" disallow="tram rail_urban rail rail_electric bicycle pedestrian ship" speed="27.78" length="3.37" shape="552.89,508.39 555.78,507.58"/>
        <lane id=":116069075#0.376_0_3" index="3" disallow="tram rail_urban rail rail_electric bicycle pedestrian ship" speed="27.78" length="3.37" shape="552.89,508.39 556.73,510.74"/>
    </edge>
    <edge id=":116069075#1.264_0" function="internal">
        <lane id=":116069075#1.264_0_0" index="0" disallow="tram rail_urban rail rail_electric bicycle pedestrian ship" speed="27.78" length="3.37" shape="866.49,469.51 869.08,465.83"/>
        <lane id=":116069075#1.264_0_1" index="1" disallow="tram rail_urban rail rail_electric bicycle pedestrian ship" speed="27.78" length="3.37" shape="866.49,469.51 869.46,469.11"/>
        <lane id=":116069075#1.264_0_2" index="2" disallow="tram rail_urban rail rail_electric bicycle pedestrian ship" speed="27.78" length="3.37" shape="866.87,472.78 869.84,472.39"/>
        <lane id=":116069075#1.264_0_3" index="3" disallow="tram rail_urban rail rail_electric bicycle pedestrian ship" speed="27.78" length="3.37" shape="867.25,476.06 870.22,475.66"/>
    </edge>
    <edge id=":116069075#1.338_0" function="internal">
        <lane id=":116069075#1.338_0_0" index="0" disallow="tram rail_urban rail rail_electric bicycle pedestrian ship" speed="27.78" length="3.30" shape="938.14,453.97 941.07,453.31"/>
        <lane id=":116069075#1.338_0_1" index="1" disallow="tram rail_urban rail rail_electric bicycle pedestrian ship" speed="27.78" length="3.30" shape="938.91,457.18 941.84,456.52"/>
        <lane id=":116069075#1.338_0_2" index="2" disallow="tram rail_urban rail rail_electric bicycle pedestrian ship" speed="27.78" length="3.30" shape="939.68,460.39 942.61,459.73"/>
        <lane id=":116069075#1.338_0_3" index="3" disallow="tram rail_urban rail rail_electric bicycle pedestrian ship" speed="27.78" length="3.30" shape="940.45,463.59 943.38,462.94"/>
        <lane id=":116069075#1.338_0_4" index="4" disallow="tram rail_urban rail rail_electric bicycle pedestrian ship" speed="27.78" length="3.30" shape="940.45,463.59 944.15,466.15"/>
    </edge>
    <edge id=":116069186#1.112_0" function="internal">
        <lane id=":116069186#1.112_0_0" index="0" disallow="tram rail_urban rail rail_electric bicycle pedestrian ship" speed="27.78" length="3.38" shape="1100.22,427.73 1098.78,432.00"/>
        <lane id=":116069186#1.112_0_1" index="1" disallow="tram rail_urban rail rail_electric bicycle pedestrian ship" speed="27.78" length="3.38" shape="1100.22,427.73 1097.48,428.97"/>
        <lane id=":116069186#1.112_0_2" index="2" disallow="tram rail_urban rail rail_electric bicycle pedestrian ship" speed="27.78" length="3.38" shape="1098.92,424.70 1096.18,425.93"/>
        <lane id=":116069186#1.112_0_3" index="3" disallow="tram rail_urban rail rail_electric bicycle pedestrian ship" speed="27.78" length="3.38" shape="1097.62,421.67 1094.88,422.90"/>
    </edge>
    <edge id=":116069186#1.128_0" function="internal">
        <lane id=":116069186#1.128_0_0" index="0" disallow="tram rail_urban rail rail_electric bicycle pedestrian ship" speed="27.78" length="3.30" shape="1086.84,437.12 1084.06,438.26"/>
        <lane id=":116069186#1.128_0_1" index="1" disallow="tram rail_urban rail rail_electric bicycle pedestrian ship" speed="27.78" length="3.30" shape="1085.54,434.09 1082.76,435.22"/>
        <lane id=":116069186#1.128_0_2" index="2" disallow="tram rail_urban rail rail_electric bicycle pedestrian ship" speed="27.78" length="3.30" shape="1084.24,431.05 1081.46,432.19"/>
        <lane id=":116069186#1.128_0_3" index="3" disallow="tram rail_urban rail rail_electric bicycle pedestrian ship" speed="27.78" length="3.30" shape="1082.94,428.02 1080.16,429.16"/>
        <lane id=":116069186#1.128_0_4" index="4" disallow="tram rail_urban rail rail_electric bicycle pedestrian ship" speed="27.78" length="3.30" shape="1082.94,428.02 1078.86,426.12"/>
    </edge>
    <edge id=":1559811806_0" function="internal">
        <lane id=":1559811806_0_0" index="0" disallow="tram rail_urban rail rail_electric ship" speed="27.78" length="9.40" shape="2745.91,291.88 2743.82,282.70"/>
        <lane id=":1559811806_0_1" index="1" disallow="tram rail_urban rail rail_electric ship" speed="27.78" length="9.40" shape="2749.13,291.13 2747.04,281.98"/>
    </edge>
    <edge id=":1559811806_2" function="internal">
        <lane id=":1559811806_2_0" index="0" disallow="tram rail_urban rail rail_electric ship" speed="27.78" length="9.30" shape="2759.93,279.12 2761.98,288.13"/>
        <lane id=":1559811806_2_1" index="1" disallow="tram rail_urban rail rail_electric ship" speed="27.78" length="9.30" shape="2756.70,279.83 2758.77,288.88"/>
        <lane id=":1559811806_2_2" index="2" disallow="tram rail_urban rail rail_electric ship" speed="27.78" length="9.30" shape="2753.48,280.55 2755.55,289.63"/>
        <lane id=":1559811806_2_3" index="3" disallow="tram rail_urban rail rail_electric ship" speed="27.78" length="9.30" shape="2750.26,281.26 2752.34,290.38"/>
    </edge>
    <edge id=":1559811806_6" function="internal">
        <lane id=":1559811806_6_0" index="0" disallow="tram rail_urban rail rail_electric ship" speed="25.00" length="8.97" shape="2738.28,287.13 2739.54,286.63 2740.35,285.84 2740.70,284.77 2740.60,283.41"/>
        <lane id=":1559811806_6_1" index="1" disallow="tram rail_urban rail rail_electric ship" speed="25.00" length="8.97" shape="2739.06,290.34 2743.06,288.97 2745.72,287.12 2747.05,284.79 2747.04,281.98"/>
    </edge>
    <edge id=":1559811808_0" function="internal">
        <lane id=":1559811808_0_0" index="0" disallow="tram rail_urban rail rail_electric ship" speed="22.22" length="3.20" shape="2715.08,305.65 2711.88,305.50"/>
        <lane id=":1559811808_0_1" index="1" disallow="tram rail_urban rail rail_electric ship" speed="22.22" length="3.20" shape="2715.24,302.36 2712.05,302.21"/>
    </edge>
    <edge id=":1559811808_2" function="internal">
        <lane id=":1559811808_2_0" index="0" disallow="tram rail_urban rail rail_electric ship" speed="22.22" length="3.35" shape="2712.54,292.32 2713.48,292.36 2714.13,292.36 2714.77,292.31 2715.70,292.18"/>
        <lane id=":1559811808_2_1" index="1" disallow="tram rail_urban rail rail_electric ship" speed="22.22" length="3.35" shape="2712.38,295.61 2713.42,295.67 2714.14,295.68 2714.86,295.63 2715.89,295.48"/>
    </edge>
    <edge id=":1559811808_4" function="internal">
        <lane id=":1559811808_4_0" index="0" disallow="tram rail_urban rail rail_electric ship" speed="22.22" length="3.20" shape="2712.21,298.91 2715.41,299.06"/>
    </edge>
    <edge id=":1559811825_0" function="internal">
        <lane id=":1559811825_0_0" index="0" disallow="tram rail_urban rail rail_electric ship" speed="25.00" length="20.41" shape="2850.27,347.00 2855.24,343.52 2858.96,341.35 2862.13,338.71 2865.44,333.81"/>
    </edge>
    <edge id=":1559811825_1" function="internal">
        <lane id=":1559811825_1_0" index="0" disallow="tram rail_urban rail rail_electric ship" speed="27.78" length="20.94" shape="2855.16,351.96 2865.44,333.81"/>
        <lane id=":1559811825_1_1" index="1" disallow="tram rail_urban rail rail_electric ship" speed="27.78" length="20.94" shape="2858.02,353.61 2868.34,335.38"/>
        <lane id=":1559811825_1_2" index="2" disallow="tram rail_urban rail rail_electric ship" speed="27.78" length="20.94" shape="2860.88,355.26 2871.23,336.96"/>
    </edge>
    <edge id=":1559811829_0" function="internal">
        <lane id=":1559811829_0_0" index="0" disallow="tram rail_urban rail rail_electric ship" speed="25.00" length="28.47" shape="2837.96,440.45 2832.91,444.85 2828.20,448.54 2823.50,453.18 2818.50,460.38"/>
        <lane id=":1559811829_0_1" index="1" disallow="tram rail_urban rail rail_electric ship" speed="25.00" length="28.47" shape="2835.63,438.11 2830.53,442.56 2825.69,446.40 2820.82,451.25 2815.65,458.71"/>
    </edge>
    <edge id=":1559811829_2" function="internal">
        <lane id=":1559811829_2_0" index="0" disallow="tram rail_urban rail rail_electric ship" speed="27.78" length="28.34" shape="2832.82,435.93 2818.50,460.38"/>
        <lane id=":1559811829_2_1" index="1" disallow="tram rail_urban rail rail_electric ship" speed="27.78" length="28.34" shape="2829.97,434.26 2815.65,458.71"/>
        <lane id=":1559811829_2_2" index="2" disallow="tram rail_urban rail rail_electric ship" speed="27.78" length="28.34" shape="2827.12,432.59 2812.80,457.05"/>
    </edge>
    <edge id=":1563323934_0" function="internal">
        <lane id=":1563323934_0_0" index="0" allow="passenger delivery bicycle pedestrian" speed="5.56" length="13.69" shape="3133.68,457.67 3131.66,461.53 3129.47,464.41 3127.11,466.31 3124.58,467.22"/>
    </edge>
    <edge id=":1563323934_1" function="internal">
        <lane id=":1563323934_1_0" index="0" allow="passenger delivery bicycle pedestrian" speed="5.56" length="16.75" shape="3133.68,457.67 3130.86,462.98 3128.75,464.66 3127.34,462.70 3126.65,457.12"/>
    </edge>
    <edge id=":1563323934_2" function="internal">
        <lane id=":1563323934_2_0" index="0" allow="passenger delivery bicycle pedestrian" speed="5.56" length="12.74" shape="3129.94,456.96 3129.77,461.10 3128.82,464.19 3127.09,466.23 3124.58,467.22"/>
    </edge>
    <edge id=":1563323934_3" function="internal">
        <lane id=":1563323934_3_0" index="0" allow="passenger delivery bicycle pedestrian" speed="5.56" length="4.82" shape="3129.94,456.96 3129.18,458.24 3128.37,458.69 3127.53,458.31 3126.65,457.12"/>
    </edge>
    <edge id=":1563323934_4" function="internal">
        <lane id=":1563323934_4_0" index="0" allow="passenger delivery bicycle pedestrian" speed="5.56" length="7.92" shape="3124.05,463.97 3125.30,463.36 3126.15,462.02 3126.60,459.94 3126.65,457.12"/>
    </edge>
    <edge id=":1563323934_5" function="internal">
        <lane id=":1563323934_5_0" index="0" allow="passenger delivery bicycle pedestrian" speed="5.56" length="4.82" shape="3124.05,463.97 3125.41,464.58 3125.95,465.33 3125.67,466.21 3124.58,467.22"/>
    </edge>
    <edge id=":1568545296_0" function="internal">
        <lane id=":1568545296_0_0" index="0" disallow="tram rail_urban rail rail_electric ship" speed="18.06" length="9.04" shape="2064.91,154.19 2062.91,153.58 2061.93,152.20 2061.99,150.05 2063.07,147.13"/>
    </edge>
    <edge id=":1568545296_1" function="internal">
        <lane id=":1568545296_1_0" index="0" disallow="tram rail_urban rail rail_electric ship" speed="13.89" length="4.82" shape="2064.91,154.19 2063.75,153.26 2063.41,152.40 2063.90,151.61 2065.20,150.90"/>
    </edge>
    <edge id=":1568545296_2" function="internal">
        <lane id=":1568545296_2_0" index="0" disallow="tram rail_urban rail rail_electric ship" speed="22.22" length="16.99" shape="2046.25,154.24 2049.13,150.73 2052.93,149.86 2056.85,149.05 2060.09,145.70"/>
        <lane id=":1568545296_2_1" index="1" disallow="tram rail_urban rail rail_electric ship" speed="22.22" length="16.99" shape="2049.34,155.41 2052.19,151.97 2055.96,151.17 2059.85,150.42 2063.07,147.13"/>
    </edge>
    <edge id=":1568545296_4" function="internal">
        <lane id=":1568545296_4_0" index="0" disallow="tram rail_urban rail rail_electric ship" speed="18.06" length="17.50" shape="2049.34,155.41 2051.14,152.97 2054.39,151.41 2059.08,150.72 2065.20,150.90"/>
    </edge>
    <edge id=":1572123432_0" function="internal">
        <lane id=":1572123432_0_0" index="0" allow="passenger delivery bicycle pedestrian" speed="13.89" length="6.47" shape="2770.68,431.90 2770.21,430.40 2769.23,429.64 2767.72,429.63 2765.70,430.37"/>
    </edge>
    <edge id=":1572123432_1" function="internal">
        <lane id=":1572123432_1_0" index="0" disallow="tram rail_urban rail rail_electric ship" speed="22.22" length="8.86" shape="2770.68,431.90 2769.53,423.11"/>
    </edge>
    <edge id=":1572123432_2" function="internal">
        <lane id=":1572123432_2_0" index="0" disallow="tram rail_urban rail rail_electric ship" speed="13.89" length="4.65" shape="2764.26,427.40 2765.28,426.73 2765.96,425.86 2766.29,424.82 2766.27,423.59"/>
    </edge>
    <edge id=":1572123653_0" function="internal">
        <lane id=":1572123653_0_0" index="0" disallow="tram rail_urban rail rail_electric ship" speed="13.89" length="10.06" shape="2710.95,523.08 2700.95,522.01"/>
    </edge>
    <edge id=":1572123653_1" function="internal">
        <lane id=":1572123653_1_0" index="0" allow="passenger delivery bicycle pedestrian" speed="9.73" length="5.74" shape="2710.95,523.08 2707.35,522.18 2705.84,520.82"/>
    </edge>
    <edge id=":1572123653_2" function="internal">
        <lane id=":1572123653_2_0" index="0" disallow="tram rail_urban rail rail_electric ship" speed="13.89" length="2.41" shape="2710.95,523.08 2709.81,522.13 2709.49,521.27"/>
    </edge>
    <edge id=":1572123653_9" function="internal">
        <lane id=":1572123653_9_0" index="0" speed="9.73" length="6.93" shape="2705.84,520.82 2705.40,520.43 2705.09,517.82 2706.42,514.36"/>
    </edge>
    <edge id=":1572123653_10" function="internal">
        <lane id=":1572123653_10_0" index="0" speed="13.89" length="2.41" shape="2709.49,521.27 2709.98,520.49 2711.30,519.80"/>
    </edge>
    <edge id=":1572123653_3" function="internal">
        <lane id=":1572123653_3_0" index="0" disallow="tram rail_urban rail rail_electric ship" speed="9.73" length="5.58" shape="2709.31,515.96 2708.72,517.48 2708.86,518.63 2709.72,519.40 2711.30,519.80"/>
    </edge>
    <edge id=":1572123653_4" function="internal">
        <lane id=":1572123653_4_0" index="0" disallow="tram rail_urban rail rail_electric ship" speed="9.73" length="10.93" shape="2709.31,515.96 2707.42,518.80 2705.40,520.75 2703.24,521.82 2700.95,522.01"/>
    </edge>
    <edge id=":1572123653_5" function="internal">
        <lane id=":1572123653_5_0" index="0" allow="passenger delivery bicycle pedestrian" speed="5.56" length="4.82" shape="2709.31,515.96 2707.99,516.64 2707.07,516.60 2706.55,515.84 2706.42,514.36"/>
    </edge>
    <edge id=":1572123653_6" function="internal">
        <lane id=":1572123653_6_0" index="0" allow="passenger delivery bicycle pedestrian" speed="9.73" length="7.08" shape="2701.30,518.73 2702.58,518.56 2703.86,517.77 2705.14,516.37 2706.42,514.36"/>
    </edge>
    <edge id=":1572123653_7" function="internal">
        <lane id=":1572123653_7_0" index="0" disallow="tram rail_urban rail rail_electric ship" speed="13.89" length="10.06" shape="2701.30,518.73 2711.30,519.80"/>
    </edge>
    <edge id=":1572123653_8" function="internal">
        <lane id=":1572123653_8_0" index="0" disallow="tram rail_urban rail rail_electric ship" speed="13.89" length="2.41" shape="2701.30,518.73 2702.44,519.68 2702.77,520.55"/>
    </edge>
    <edge id=":1572123653_11" function="internal">
        <lane id=":1572123653_11_0" index="0" speed="13.89" length="2.41" shape="2702.77,520.55 2702.27,521.32 2700.95,522.01"/>
    </edge>
    <edge id=":1572123659_0" function="internal">
        <lane id=":1572123659_0_0" index="0" allow="passenger delivery bicycle pedestrian" speed="5.56" length="6.61" shape="2756.36,434.91 2754.65,435.81 2753.58,436.64 2752.75,437.73 2751.79,439.42"/>
    </edge>
    <edge id=":1572123659_1" function="internal">
        <lane id=":1572123659_1_0" index="0" allow="passenger delivery bicycle pedestrian" speed="5.56" length="8.85" shape="2756.36,434.91 2754.24,435.61 2752.17,435.61 2750.14,434.92 2748.17,433.54"/>
    </edge>
    <edge id=":1572123659_2" function="internal">
        <lane id=":1572123659_2_0" index="0" allow="passenger delivery bicycle pedestrian" speed="5.56" length="4.82" shape="2756.36,434.91 2754.89,434.71 2754.16,434.15 2754.17,433.22 2754.92,431.94"/>
    </edge>
    <edge id=":1572123659_3" function="internal">
        <lane id=":1572123659_3_0" index="0" allow="passenger delivery bicycle pedestrian" speed="5.56" length="4.95" shape="2750.36,431.07 2751.49,431.87 2752.62,432.29 2753.77,432.31 2754.92,431.94"/>
    </edge>
    <edge id=":1572123659_4" function="internal">
        <lane id=":1572123659_4_0" index="0" allow="passenger delivery bicycle pedestrian" speed="5.56" length="9.27" shape="2750.36,431.07 2751.97,432.94 2752.75,434.96 2752.69,437.12 2751.79,439.42"/>
    </edge>
    <edge id=":1572123659_5" function="internal">
        <lane id=":1572123659_5_0" index="0" allow="passenger delivery bicycle pedestrian" speed="5.56" length="4.75" shape="2748.90,437.82 2749.36,436.64 2749.40,435.53 2749.00,434.50 2748.17,433.54"/>
    </edge>
    <edge id=":1572123659_6" function="internal">
        <lane id=":1572123659_6_0" index="0" allow="passenger delivery bicycle pedestrian" speed="5.56" length="8.65" shape="2748.90,437.82 2750.17,435.61 2751.26,434.19 2752.67,433.12 2754.92,431.94"/>
    </edge>
    <edge id=":1572123659_7" function="internal">
        <lane id=":1572123659_7_0" index="0" allow="passenger delivery bicycle pedestrian" speed="5.56" length="4.82" shape="2748.90,437.82 2750.23,437.14 2751.15,437.18 2751.67,437.94 2751.79,439.42"/>
    </edge>
    <edge id=":1572123805_0" function="internal">
        <lane id=":1572123805_0_0" index="0" disallow="tram rail_urban rail rail_electric ship" speed="13.89" length="9.85" shape="2730.86,525.21 2721.07,524.16"/>
    </edge>
    <edge id=":1572123805_1" function="internal">
        <lane id=":1572123805_1_0" index="0" disallow="tram rail_urban rail rail_electric ship" speed="13.89" length="2.41" shape="2730.86,525.21 2729.72,524.26 2729.40,523.39"/>
    </edge>
    <edge id=":1572123805_6" function="internal">
        <lane id=":1572123805_6_0" index="0" speed="13.89" length="2.41" shape="2729.40,523.39 2729.90,522.62 2731.22,521.93"/>
    </edge>
    <edge id=":1572123805_2" function="internal">
        <lane id=":1572123805_2_0" index="0" disallow="tram rail_urban rail rail_electric ship" speed="13.89" length="9.86" shape="2721.42,520.88 2731.22,521.93"/>
    </edge>
    <edge id=":1572123805_3" function="internal">
        <lane id=":1572123805_3_0" index="0" allow="passenger delivery bicycle pedestrian" speed="9.73" length="5.61" shape="2721.42,520.88 2724.81,521.74 2726.40,523.12"/>
    </edge>
    <edge id=":1572123805_7" function="internal">
        <lane id=":1572123805_7_0" index="0" speed="9.73" length="6.54" shape="2726.40,523.12 2726.75,523.43 2727.22,525.96 2726.22,529.31"/>
    </edge>
    <edge id=":1572123805_4" function="internal">
        <lane id=":1572123805_4_0" index="0" disallow="tram rail_urban rail rail_electric ship" speed="9.73" length="5.44" shape="2723.22,527.94 2723.67,526.44 2723.46,525.30 2722.59,524.55 2721.07,524.16"/>
    </edge>
    <edge id=":1572123805_5" function="internal">
        <lane id=":1572123805_5_0" index="0" disallow="tram rail_urban rail rail_electric ship" speed="9.73" length="10.72" shape="2723.22,527.94 2724.84,525.11 2726.72,523.16 2728.84,522.10 2731.22,521.93"/>
    </edge>
    <edge id=":1572144651_0" function="internal">
        <lane id=":1572144651_0_0" index="0" allow="passenger delivery bicycle pedestrian custom1 custom2" speed="5.56" length="9.30" shape="1227.51,430.91 1225.12,432.23 1223.66,433.41 1222.34,434.81 1220.37,436.75"/>
    </edge>
    <edge id=":1572144651_1" function="internal">
        <lane id=":1572144651_1_0" index="0" allow="passenger delivery bicycle pedestrian custom1 custom2" speed="5.56" length="4.82" shape="1227.51,430.91 1226.04,430.70 1225.31,430.14 1225.32,429.22 1226.08,427.94"/>
    </edge>
    <edge id=":1572144651_2" function="internal">
        <lane id=":1572144651_2_0" index="0" allow="passenger delivery bicycle pedestrian custom1 custom2" speed="5.56" length="10.88" shape="1215.43,427.78 1218.63,427.52 1220.99,428.15 1223.24,428.63 1226.08,427.94"/>
    </edge>
    <edge id=":1572144651_3" function="internal">
        <lane id=":1572144651_3_0" index="0" allow="passenger delivery bicycle pedestrian custom1 custom2" speed="5.56" length="16.63" shape="1216.31,430.97 1222.16,429.79 1224.78,430.36 1224.19,432.68 1220.37,436.75"/>
    </edge>
    <edge id=":1572144651_4" function="internal">
        <lane id=":1572144651_4_0" index="0" allow="passenger delivery bicycle pedestrian custom1 custom2" speed="5.56" length="10.25" shape="1218.14,434.30 1220.31,432.20 1221.81,430.67 1223.46,429.38 1226.08,427.94"/>
    </edge>
    <edge id=":1572144651_5" function="internal">
        <lane id=":1572144651_5_0" index="0" allow="passenger delivery bicycle pedestrian custom1 custom2" speed="5.56" length="4.82" shape="1218.14,434.30 1219.62,434.08 1220.48,434.41 1220.73,435.30 1220.37,436.75"/>
    </edge>
    <edge id=":1572144677_0" function="internal">
        <lane id=":1572144677_0_0" index="0" allow="passenger delivery bicycle pedestrian custom1 custom2" speed="5.56" length="5.77" shape="1186.14,467.89 1184.82,468.44 1183.67,467.95 1182.41,467.26 1180.76,467.24"/>
    </edge>
    <edge id=":1572144677_1" function="internal">
        <lane id=":1572144677_1_0" index="0" allow="passenger delivery bicycle pedestrian custom1 custom2" speed="5.56" length="4.82" shape="1186.14,467.89 1184.67,468.11 1183.81,467.78 1183.56,466.89 1183.92,465.44"/>
    </edge>
    <edge id=":1572144743_0" function="internal">
        <lane id=":1572144743_0_0" index="0" allow="passenger delivery bicycle pedestrian custom1 custom2" speed="13.89" length="9.80" shape="1284.77,402.06 1282.09,402.85 1280.54,404.09 1279.06,405.61 1276.63,407.20"/>
    </edge>
    <edge id=":1572144743_1" function="internal">
        <lane id=":1572144743_1_0" index="0" disallow="tram rail_urban rail rail_electric ship" speed="22.22" length="10.28" shape="1284.77,402.06 1281.80,402.24 1279.74,401.86 1277.70,401.12 1274.79,400.22"/>
    </edge>
    <edge id=":1572144743_2" function="internal">
        <lane id=":1572144743_2_0" index="0" disallow="tram rail_urban rail rail_electric ship" speed="13.89" length="7.05" shape="1275.19,404.23 1277.16,403.02 1277.74,401.95 1276.96,401.01 1274.79,400.22"/>
    </edge>
    <edge id=":1572144743_3" function="internal">
        <lane id=":1572144743_3_0" index="0" allow="passenger delivery bicycle pedestrian custom1 custom2" speed="5.56" length="4.82" shape="1275.19,404.23 1276.67,404.44 1277.40,405.00 1277.39,405.92 1276.63,407.20"/>
    </edge>
    <edge id=":1572144752_0" function="internal">
        <lane id=":1572144752_0_0" index="0" allow="passenger delivery bicycle pedestrian custom1 custom2" speed="5.56" length="5.37" shape="1132.56,481.87 1131.06,482.38 1130.08,482.85 1129.15,483.44 1127.81,484.30"/>
    </edge>
    <edge id=":1572144752_1" function="internal">
        <lane id=":1572144752_1_0" index="0" allow="passenger delivery bicycle pedestrian custom1 custom2" speed="5.56" length="11.78" shape="1132.56,481.87 1127.87,483.05 1125.54,483.04 1125.57,481.84 1127.98,479.43"/>
    </edge>
    <edge id=":1572144752_2" function="internal">
        <lane id=":1572144752_2_0" index="0" allow="passenger delivery bicycle pedestrian custom1 custom2" speed="5.56" length="4.60" shape="1126.07,481.50 1125.86,476.90"/>
    </edge>
    <edge id=":1572144752_3" function="internal">
        <lane id=":1572144752_3_0" index="0" allow="passenger delivery bicycle pedestrian custom1 custom2" speed="5.56" length="4.82" shape="1126.07,481.50 1127.55,481.55 1128.34,482.03 1128.42,482.95 1127.81,484.30"/>
    </edge>
    <edge id=":1688843682_0" function="internal">
        <lane id=":1688843682_0_0" index="0" disallow="tram rail_urban rail rail_electric bicycle pedestrian ship" speed="27.78" length="0.10" shape="3138.34,306.74 3138.25,306.71"/>
        <lane id=":1688843682_0_1" index="1" disallow="tram rail_urban rail rail_electric bicycle pedestrian ship" speed="27.78" length="0.10" shape="3137.34,309.88 3137.43,309.91"/>
    </edge>
    <edge id=":2402962022_0" function="internal">
        <lane id=":2402962022_0_0" index="0" allow="passenger delivery bicycle pedestrian" speed="13.89" length="5.01" shape="2388.10,288.95 2386.73,289.07 2385.73,289.60 2385.10,290.54 2384.84,291.89"/>
    </edge>
    <edge id=":2402962022_1" function="internal">
        <lane id=":2402962022_1_0" index="0" disallow="tram rail_urban rail rail_electric ship" speed="22.22" length="9.50" shape="2388.10,288.95 2378.61,288.46"/>
        <lane id=":2402962022_1_1" index="1" disallow="tram rail_urban rail rail_electric ship" speed="22.22" length="9.50" shape="2388.27,285.65 2378.78,285.16"/>
    </edge>
    <edge id=":2402962022_3" function="internal">
        <lane id=":2402962022_3_0" index="0" disallow="tram rail_urban rail rail_electric ship" speed="22.22" length="9.50" shape="2379.46,271.98 2388.95,272.47"/>
        <lane id=":2402962022_3_1" index="1" disallow="tram rail_urban rail rail_electric ship" speed="22.22" length="9.50" shape="2379.29,275.28 2388.78,275.77"/>
    </edge>
    <edge id=":2402962022_5" function="internal">
        <lane id=":2402962022_5_0" index="0" allow="passenger delivery bicycle pedestrian" speed="13.89" length="10.98" shape="2379.29,275.28 2382.04,276.44 2383.89,279.60 2384.66,283.86"/>
    </edge>
    <edge id=":2402962022_8" function="internal">
        <lane id=":2402962022_8_0" index="0" speed="13.89" length="8.04" shape="2384.66,283.86 2384.82,284.75 2384.84,291.89"/>
    </edge>
    <edge id=":2402962022_6" function="internal">
        <lane id=":2402962022_6_0" index="0" disallow="tram rail_urban rail rail_electric ship" speed="13.89" length="5.00" shape="2381.54,291.72 2381.42,290.35 2380.89,289.35 2379.95,288.72 2378.61,288.46"/>
    </edge>
    <edge id=":2402962022_7" function="internal">
        <lane id=":2402962022_7_0" index="0" disallow="tram rail_urban rail rail_electric ship" speed="13.89" length="19.00" shape="2381.54,291.72 2382.32,284.62 2383.79,279.59 2385.94,276.64 2388.78,275.77"/>
    </edge>
    <edge id=":243728741#3.83_0" function="internal">
        <lane id=":243728741#3.83_0_0" index="0" disallow="tram rail_urban rail rail_electric ship" speed="22.22" length="3.50" shape="2081.85,234.45 2081.99,237.45"/>
        <lane id=":243728741#3.83_0_1" index="1" disallow="tram rail_urban rail rail_electric ship" speed="22.22" length="3.50" shape="2078.56,234.65 2078.69,237.65"/>
        <lane id=":243728741#3.83_0_2" index="2" disallow="tram rail_urban rail rail_electric ship" speed="22.22" length="3.50" shape="2078.56,234.65 2075.40,237.85"/>
    </edge>
    <edge id=":243728742#0.25_0" function="internal">