<?xml version="1.0" encoding="UTF-8"?>

<!-- generated on Mon Oct 15 11:27:16 2018 by Eclipse SUMO jtrrouter Version v1_0_1+0266-215b34d
<configuration xmlns:xsi="http://www.w3.org/2001/XMLSchema-instance" xsi:noNamespaceSchemaLocation="http://sumo.dlr.de/xsd/jtrrouterConfiguration.xsd">

    <input>
        <net-file value="moco.net.xml"/>
        <route-files value="moco.flows.xml"/>
        <turn-ratio-files value="moco.turn.xml"/>
    </input>

    <output>
        <output-file value="moco_jtr.rou.xml"/>
    </output>

    <processing>
        <no-internal-links value="true"/>
        <remove-loops value="true"/>
        <accept-all-destinations value="true"/>
    </processing>

</configuration>
-->

<routes xmlns:xsi="http://www.w3.org/2001/XMLSchema-instance" xsi:noNamespaceSchemaLocation="http://sumo.dlr.de/xsd/routes_file.xsd">
    <vehicle id="0.0" depart="0.00">
        <route edges="26524637 114850054#1 116069075#0 116069075#0.376 116069075#1 116069075#1.264 116069075#1.338 26467810 26467810.54 116069261 50846756 50846755#0 50846755#0.517 50846755#0.671 50846755#2.0 50846755#2.0.590 50846755#3 50846755#3.65 50846755#3.145 50846755#4 50846755#5 -89534885"/>
    </vehicle>
    <vehicle id="1.0" depart="0.00">
        <route edges="5965712 116069075#1 116069075#1.264 116069075#1.338 26467810 26467810.54 116069261 50846756 50846755#0 50846755#0.517 50846755#0.671 243728742#4"/>
    </vehicle>
    <vehicle id="10.0" depart="0.00">
        <route edges="143009954 50846720#0 50846720#1 50846720#2 50846720#3 50846720#4 50846720#4.128 243728741#4 -244626184#2 -5984107"/>
    </vehicle>
    <vehicle id="100.0" depart="0.00">
        <route edges="5965584 116069075#0 116069075#0.376 116069075#1 116069075#1.264 116069075#1.338 26467810 26467810.54 -50846769 -50846769.75 -50846765 -50846720#12 -50846720#11 -50846720#10 -50846720#9 -50846720#8 -50846720#7 -50846720#6 -50846720#6.20 243728742#1 243728742#2.0 243728742#2.47 243728742#4"/>
    </vehicle>
    <vehicle id="2.0" depart="0.00">
        <route edges="50846782#2 50846782#2.53 116069075#1 116069075#1.264 116069075#1.338 26467810 26467810.54 116069261 50846756 50846755#0 50846755#0.517 50846755#0.671 243728742#4"/>
    </vehicle>
    <vehicle id="3.0" depart="0.00">
        <route edges="5968215#0 5968215#0.389 26467810 26467810.54 116069261 50846756 50846755#0 50846755#0.517 50846755#0.671 50846755#2.0 50846755#2.0.590 50846755#3 50846755#3.65 50846755#3.145 50846755#4 50846755#5 -89534885"/>
    </vehicle>
    <vehicle id="4.0" depart="0.00">
        <route edges="-5968215#2 5982169#0 5982169#0.394 5982169#1 5982169#2 114850085#0 114850085#1"/>
    </vehicle>
    <vehicle id="5.0" depart="0.00">
        <route edges="243728741#0 50846755#2.0 50846755#2.0.590 50846755#3 50846755#3.65 50846755#3.145 50846755#4 50846755#5 -89534885"/>
    </vehicle>
    <vehicle id="6.0" depart="0.00">
        <route edges="244626184#2 243728742#0 243728742#0.25 243728742#0.50 50846720#6 50846720#7 50846720#8 50846720#9 50846720#10 50846720#11 50846720#12 50846765 143655840#0 143655840#1 116069186#1 116069186#1.112 116069186#1.128 5982169#0 5982169#0.394 5982169#1 5982169#2 114850085#0 114850085#1"/>
    </vehicle>
    <vehicle id="7.0" depart="0.00">
        <route edges="5974128 50846713#1 50846713#2 -142530979 244626213#3 50846744 50846724#0 50846724#1"/>
    </vehicle>
    <vehicle id="8.0" depart="0.00">
        <route edges="50846710#1.45 50846720#0 50846720#1 50846720#2 50846720#3 50846720#4 50846720#4.128 50846720#6 50846720#7 50846720#8 50846720#9 50846720#10 50846720#11 50846720#12 50846765 143655840#0 143655840#1 116069186#1 116069186#1.112 116069186#1.128 -5968215#0 -5971039#0"/>
    </vehicle>
    <vehicle id="9.0" depart="0.00">
        <route edges="gneE17.147 49187078#3 49187078#3.591 49187078#5.0 49187078#5.22 50846749 50846753 50846753.54 116069186#1 116069186#1.112 116069186#1.128 5982169#0 5982169#0.394 5982169#1 5982169#2 114850085#0 114850085#1"/>
    </vehicle>
    <vehicle id="0.1" depart="3.00">
        <route edges="26524637 114850054#1 116069075#0 116069075#0.376 116069075#1 116069075#1.264 116069075#1.338 26467810 26467810.54 -50846769 -50846769.75 -50846765 -50846720#12 -50846720#11 -50846720#10 -50846720#9 -50846720#8 -50846720#7 -50846720#6 -50846720#6.20 -50846720#4 -50846720#3 -50846720#2 -50846720#1 -50846720#1.35 142530980 -50846713#1 50846755#3 50846755#3.65 50846755#3.145 50846755#4 50846755#5 -89534885"/>
    </vehicle>
    <vehicle id="100.1" depart="4.82">
        <route edges="5965584 116069075#0 116069075#0.376 116069075#1 116069075#1.264 116069075#1.338 26467810 26467810.54 116069261 50846756 50846755#0 50846755#0.517 50846755#0.671 50846755#2.0 50846755#2.0.590 50846755#3 50846755#3.65 50846755#3.145 50846755#4 50846755#5 -89534885"/>
    </vehicle>
    <vehicle id="0.2" depart="6.00">
        <route edges="26524637 114850054#1 116069075#0 116069075#0.376 116069075#1 116069075#1.264 116069075#1.338 26467810 26467810.54 -50846769 -50846769.75 -50846765 -50846720#12 -50846720#11 -50846720#10 -50846720#9 -50846720#8 -50846720#7 -50846720#6 -50846720#6.20 -50846720#4 -50846720#3 -50846720#2 -50846720#1 -50846720#1.35 -50846720#0 -143009954"/>
    </vehicle>
    <vehicle id="10.1" depart="8.00">
        <route edges="143009954 -50846713#2 -50846713#1 49187078#3 49187078#3.591 49187078#5.0 49187078#5.22 50846749 50846753 50846753.54 116069186#1 116069186#1.112 116069186#1.128 5982169#0 5982169#0.394 5982169#1 5982169#2 114850085#0 114850085#1"/>
    </vehicle>
    <vehicle id="9.1" depart="8.00">
        <route edges="gneE17.147 49187078#3 49187078#3.591 49187078#5.0 49187078#5.22 50846749 50846753 50846753.54 116069186#1 116069186#1.112 116069186#1.128 5982169#0 5982169#0.394 5982169#1 5982169#2 114850085#0 114850085#1"/>
    </vehicle>
    <vehicle id="6.1" depart="8.24">
        <route edges="244626184#2 243728742#0 243728742#0.25 243728742#0.50 50846720#6 50846720#7 50846720#8 50846720#9 50846720#10 50846720#11 50846720#12 50846765 143655840#0 143655840#1 116069186#1 116069186#1.112 116069186#1.128 5982169#0 5982169#0.394 5982169#1 5982169#2 114850085#0 114850085#1"/>
    </vehicle>
    <vehicle id="0.3" depart="9.00">
        <route edges="26524637 114850054#1 116069075#0 116069075#0.376 116069075#1 116069075#1.264 116069075#1.338 -5968215#0 -5971039#0"/>
    </vehicle>
    <vehicle id="100.2" depart="9.64">
        <route edges="5965584 116069075#0 116069075#0.376 116069075#1 116069075#1.264 116069075#1.338 26467810 26467810.54 116069261 50846756 50846755#0 50846755#0.517 50846755#0.671 50846755#2.0 50846755#2.0.590 50846755#3 50846755#3.65 50846755#3.145 50846755#4 50846755#5 -89534885"/>
    </vehicle>
    <vehicle id="0.4" depart="12.00">
        <route edges="26524637 114850054#1 116069075#0 116069075#0.376 116069075#1 116069075#1.264 116069075#1.338 26467810 26467810.54 116069261 50846756 50846755#0 50846755#0.517 50846755#0.671 50846755#2.0 50846755#2.0.590 50846755#3 50846755#3.65 50846755#3.145 50846755#4 50846755#5 -89534885"/>
    </vehicle>
    <vehicle id="5.1" depart="13.58">
        <route edges="243728741#0 50846755#2.0 50846755#2.0.590 50846755#3 50846755#3.65 50846755#3.145 50846755#4 50846755#5 -89534885"/>
    </vehicle>
    <vehicle id="100.3" depart="14.46">
        <route edges="5965584 116069075#0 116069075#0.376 116069075#1 116069075#1.264 116069075#1.338 26467810 26467810.54 -50846769 -50846769.75 -50846765 -50846720#12 -50846720#11 -50846720#10 -50846720#9 -50846720#8 -50846720#7 -50846720#6 -50846720#6.20 243728741#4 -244626184#2 -5984107"/>
    </vehicle>
    <vehicle id="0.5" depart="15.00">
        <route edges="26524637 114850054#1 116069075#0 116069075#0.376 116069075#1 116069075#1.264 116069075#1.338 26467810 26467810.54 116069261 50846756 50846755#0 50846755#0.517 50846755#0.671 243728741#2 243728741#3 243728741#3.83 -50846720#4 -50846720#3 -50846720#2 -50846720#1 -50846720#1.35 142530980 -50846713#1 50846755#3 50846755#3.65 50846755#3.145 50846755#4 50846755#5 -89534885"/>
    </vehicle>
    <vehicle id="10.2" depart="16.00">
        <route edges="143009954 50846720#0 50846720#1 50846720#2 50846720#3 50846720#4 50846720#4.128 50846720#6 50846720#7 50846720#8 50846720#9 50846720#10 50846720#11 50846720#12 50846765 143655840#0 143655840#1 116069186#1 116069186#1.112 116069186#1.128 5982169#0 5982169#0.394 5982169#1 5982169#2 114850085#0 114850085#1"/>
    </vehicle>
    <vehicle id="9.2" depart="16.00">
        <route edges="gneE17.147 49187078#3 49187078#3.591 243728742#4"/>
    </vehicle>
    <vehicle id="6.2" depart="16.47">
        <route edges="244626184#2 243728742#0 243728742#0.25 243728742#0.50 50846720#6 50846720#7 50846720#8 50846720#9 50846720#10 50846720#11 50846720#12 50846765 143655840#0 143655840#1 116069186#1 116069186#1.112 116069186#1.128 5982169#0 5982169#0.394 5982169#1 5982169#2 114850085#0 114850085#1"/>
    </vehicle>
    <vehicle id="0.6" depart="18.00">
        <route edges="26524637 114850054#1 116069075#0 116069075#0.376 116069075#1 116069075#1.264 116069075#1.338 26467810 26467810.54 116069261 50846756 50846755#0 50846755#0.517 50846755#0.671 50846755#2.0 50846755#2.0.590 50846755#3 50846755#3.65 50846755#3.145 50846755#4 50846755#5 -89534885"/>
    </vehicle>
    <vehicle id="100.4" depart="19.28">
        <route edges="5965584 116069075#0 116069075#0.376 116069075#1 116069075#1.264 116069075#1.338 26467810 26467810.54 116069261 50846756 50846755#0 50846755#0.517 50846755#0.671 243728741#2 243728741#3 243728741#3.83 243728741#4 -244626184#2 -5984107"/>
    </vehicle>
    <vehicle id="0.7" depart="21.00">
        <route edges="26524637 114850054#1 116069075#0 116069075#0.376 116069075#1 116069075#1.264 116069075#1.338 26467810 26467810.54 116069261 50846756 50846755#0 50846755#0.517 50846755#0.671 50846755#2.0 50846755#2.0.590 50846755#3 50846755#3.65 50846755#3.145 50846755#4 50846755#5 -89534885"/>
    </vehicle>
    <vehicle id="0.8" depart="24.00">
        <route edges="26524637 114850054#1 116069075#0 116069075#0.376 116069075#1 116069075#1.264 116069075#1.338 26467810 26467810.54 -50846769 -50846769.75 -50846765 -50846720#12 -50846720#11 -50846720#10 -50846720#9 -50846720#8 -50846720#7 -50846720#6 -50846720#6.20 -50846720#4 -50846720#3 -50846720#2 -50846720#1 -50846720#1.35 -50846720#0 -142530979 244626213#3 50846744 50846724#0 50846724#1"/>
    </vehicle>
    <vehicle id="10.3" depart="24.00">
        <route edges="143009954 50846720#0 50846720#1 50846720#2 50846720#3 50846720#4 50846720#4.128 50846720#6 50846720#7 50846720#8 50846720#9 50846720#10 50846720#11 50846720#12 50846765 143655840#0 143655840#1 116069186#1 116069186#1.112 116069186#1.128 5982169#0 5982169#0.394 5982169#1 5982169#2 114850085#0 114850085#1"/>
    </vehicle>
    <vehicle id="9.3" depart="24.00">
        <route edges="gneE17.147 49187078#3 49187078#3.591 243728741#2 243728741#3 243728741#3.83 50846720#6 50846720#7 50846720#8 50846720#9 50846720#10 50846720#11 50846720#12 50846765 143655840#0 143655840#1 116069186#1 116069186#1.112 116069186#1.128 5982169#0 5982169#0.394 5982169#1 5982169#2 114850085#0 114850085#1"/>
    </vehicle>
    <vehicle id="100.5" depart="24.09">
        <route edges="5965584 116069075#0 116069075#0.376 116069075#1 116069075#1.264 116069075#1.338 26467810 26467810.54 116069261 50846756 50846755#0 50846755#0.517 50846755#0.671 243728741#2 243728741#3 243728741#3.83 243728741#4 -244626184#2 -5984107"/>
    </vehicle>
    <vehicle id="6.3" depart="24.71">
        <route edges="244626184#2 243728742#0 243728742#0.25 243728742#0.50 243728742#1 243728742#2.0 gneE15 gneE16 49187078#5.22 50846749 50846753 50846753.54 116069186#1 116069186#1.112 116069186#1.128 5982169#0 5982169#0.394 5982169#1 5982169#2 114850085#0 114850085#1"/>
    </vehicle>
    <vehicle id="0.9" depart="27.00">
        <route edges="26524637 114850054#1 116069075#0 116069075#0.376 116069075#1 116069075#1.264 116069075#1.338 26467810 26467810.54 116069261 50846756 50846755#0 50846755#0.517 50846755#0.671 243728741#2 243728741#3 243728741#3.83 -50846720#4 -50846720#3 -50846720#2 -50846720#1 -50846720#1.35 -50846720#0 -143009954"/>
    </vehicle>
    <vehicle id="5.2" depart="27.17">
        <route edges="243728741#0 49187078#5.0 49187078#5.22 50846749 50846753 50846753.54 116069186#1 116069186#1.112 116069186#1.128 5982169#0 5982169#0.394 5982169#1 5982169#2 114850085#0 114850085#1"/>
    </vehicle>
    <vehicle id="100.6" depart="28.91">
        <route edges="5965584 116069075#0 116069075#0.376 116069075#1 116069075#1.264 116069075#1.338 26467810 26467810.54 116069261 50846756 50846755#0 50846755#0.517 50846755#0.671 50846755#2.0 50846755#2.0.590 50846755#3 50846755#3.65 50846755#3.145 50846755#4 50846755#5 -89534885"/>
    </vehicle>
    <vehicle id="0.10" depart="30.00">
        <route edges="26524637 114850054#1 116069075#0 116069075#0.376 116069075#1 116069075#1.264 116069075#1.338 26467810 26467810.54 116069261 50846756 50846755#0 50846755#0.517 50846755#0.671 50846755#2.0 50846755#2.0.590 50846755#3 50846755#3.65 50846755#3.145 50846755#4 50846755#5 -89534885"/>
    </vehicle>
    <vehicle id="7.1" depart="30.00">
        <route edges="5974128 50846713#1 50846713#2 -142530979 244626213#3 50846744 50846724#0 50846724#1"/>
    </vehicle>
    <vehicle id="8.1" depart="30.00">
        <route edges="50846710#1.45 50846720#0 50846720#1 50846720#2 50846720#3 50846720#4 50846720#4.128 50846720#6 50846720#7 50846720#8 50846720#9 50846720#10 50846720#11 50846720#12 50846765 143655840#0 143655840#1 116069186#1 116069186#1.112 116069186#1.128 5982169#0 5982169#0.394 -5965712 5972214#1"/>
    </vehicle>
    <vehicle id="10.4" depart="32.00">
        <route edges="143009954 -50846713#2 -50846713#1 50846755#3 50846755#3.65 50846755#3.145 50846755#4 50846755#5 -89534885"/>
    </vehicle>
    <vehicle id="9.4" depart="32.00">
        <route edges="gneE17.147 49187078#3 49187078#3.591 49187078#5.0 49187078#5.22 50846749 50846753 50846753.54 116069186#1 116069186#1.112 116069186#1.128 5982169#0 5982169#0.394 5982169#1 5982169#2 114850085#0 114850085#1"/>
    </vehicle>
    <vehicle id="2.1" depart="32.73">
        <route edges="50846782#2 50846782#2.53 116069075#1 116069075#1.264 116069075#1.338 26467810 26467810.54 -50846769 -50846769.75 -50846765 -50846720#12 -50846720#11 -50846720#10 -50846720#9 -50846720#8 -50846720#7 -50846720#6 -50846720#6.20 -50846720#4 -50846720#3 -50846720#2 -50846720#1 -50846720#1.35 -50846720#0 -143009954"/>
    </vehicle>
    <vehicle id="6.4" depart="32.95">
        <route edges="244626184#2 243728742#0 243728742#0.25 243728742#0.50 -50846720#4 -50846720#3 -50846720#2 -50846720#1 -50846720#1.35 -50846720#0 -143009954"/>
    </vehicle>
    <vehicle id="0.11" depart="33.00">
        <route edges="26524637 114850054#1 116069075#0 116069075#0.376 116069075#1 116069075#1.264 116069075#1.338 26467810 26467810.54 116069261 50846756 50846755#0 50846755#0.517 50846755#0.671 50846755#2.0 50846755#2.0.590 -5974128"/>
    </vehicle>
    <vehicle id="100.7" depart="33.73">
        <route edges="5965584 116069075#0 116069075#0.376 116069075#1 116069075#1.264 116069075#1.338 26467810 26467810.54 116069261 50846756 50846755#0 50846755#0.517 50846755#0.671 50846755#2.0 50846755#2.0.590 50846755#3 50846755#3.65 50846755#3.145 50846755#4 50846755#5 -89534885"/>
    </vehicle>
    <vehicle id="3.1" depart="33.96">
        <route edges="5968215#0 5968215#0.389 5982169#0 5982169#0.394 5982169#1 5982169#2 114850085#0 114850085#1"/>
    </vehicle>
    <vehicle id="0.12" depart="36.00">
        <route edges="26524637 114850054#1 116069075#0 116069075#0.376 116069075#1 116069075#1.264 116069075#1.338 26467810 26467810.54 116069261 50846756 50846755#0 50846755#0.517 50846755#0.671 50846755#2.0 50846755#2.0.590 -5974128"/>
    </vehicle>
    <vehicle id="100.8" depart="38.55">
        <route edges="5965584 116069075#0 116069075#0.376 116069075#1 116069075#1.264 116069075#1.338 26467810 26467810.54 -50846769 -50846769.75 -50846765 -50846720#12 -50846720#11 -50846720#10 -50846720#9 -50846720#8 -50846720#7 -50846720#6 -50846720#6.20 -50846720#4 -50846720#3 -50846720#2 -50846720#1 -50846720#1.35 -50846720#0 -143009954"/>
    </vehicle>
    <vehicle id="0.13" depart="39.00">
        <route edges="26524637 114850054#1 116069075#0 116069075#0.376 116069075#1 116069075#1.264 116069075#1.338 26467810 26467810.54 -50846769 -50846769.75 -50846765 -50846720#12 -50846720#11 -50846720#10 -50846720#9 -50846720#8 -50846720#7 -50846720#6 -50846720#6.20 243728742#1 243728742#2.0 243728742#2.47 243728742#4"/>
    </vehicle>
    <vehicle id="10.5" depart="40.00">
        <route edges="143009954 50846720#0 50846720#1 50846720#2 50846720#3 50846720#4 50846720#4.128 50846720#6 50846720#7 50846720#8 50846720#9 50846720#10 50846720#11 50846720#12 50846765 143655840#0 143655840#1 116069186#1 116069186#1.112 116069186#1.128 5982169#0 5982169#0.394 5982169#1 5982169#2 114850085#0 114850085#1"/>
    </vehicle>
    <vehicle id="9.5" depart="40.00">
        <route edges="gneE17.147 49187078#3 49187078#3.591 49187078#5.0 49187078#5.22 50846749 50846753 50846753.54 116069186#1 116069186#1.112 116069186#1.128 5982169#0 5982169#0.394 5982169#1 5982169#2 114850085#0 114850085#1"/>
    </vehicle>
    <vehicle id="5.3" depart="40.75">
        <route edges="243728741#0 243728741#2 243728741#3 243728741#3.83 243728741#4 -244626184#2 -5984107"/>
    </vehicle>
    <vehicle id="6.5" depart="41.19">
        <route edges="244626184#2 243728742#0 243728742#0.25 243728742#0.50 50846720#6 50846720#7 50846720#8 50846720#9 50846720#10 50846720#11 50846720#12 50846765 143655840#0 143655840#1 116069186#1 116069186#1.112 116069186#1.128 5982169#0 5982169#0.394 -50846782#2 -50846782#1 -50846782#0"/>
    </vehicle>
    <vehicle id="0.14" depart="42.00">
        <route edges="26524637 114850054#1 116069075#0 116069075#0.376 116069075#1 116069075#1.264 116069075#1.338 26467810 26467810.54 116069261 50846756 50846755#0 50846755#0.517 50846755#0.671 243728741#2 243728741#3 243728741#3.83 -50846720#4 -50846720#3 -50846720#2 5988429#0 5973964"/>
    </vehicle>
    <vehicle id="100.9" depart="43.37">
        <route edges="5965584 116069075#0 116069075#0.376 116069075#1 116069075#1.264 116069075#1.338 26467810 26467810.54 -50846769 -50846769.75 -50846765 -50846720#12 -50846720#11 -50846720#10 -50846720#9 -50846720#8 -50846720#7 -50846720#6 -50846720#6.20 243728742#1 243728742#2.0 243728742#2.47 243728742#4"/>
    </vehicle>
    <vehicle id="0.15" depart="45.00">
        <route edges="26524637 114850054#1 116069075#0 116069075#0.376 116069075#1 116069075#1.264 116069075#1.338 26467810 26467810.54 116069261 50846756 50846755#0 50846755#0.517 50846755#0.671 50846755#2.0 50846755#2.0.590 50846755#3 50846755#3.65 50846755#3.145 50846755#4 50846755#5 -89534885"/>
    </vehicle>
    <vehicle id="0.16" depart="48.00">
        <route edges="26524637 114850054#1 116069075#0 116069075#0.376 116069075#1 116069075#1.264 116069075#1.338 26467810 26467810.54 116069261 50846756 50846755#0 50846755#0.517 50846755#0.671 50846755#2.0 50846755#2.0.590 50846713#1 50846713#2 50846720#0 50846720#1 50846720#2 50846720#3 50846720#4 50846720#4.128 50846720#6 50846720#7 50846720#8 50846720#9 50846720#10 50846720#11 50846720#12 50846765 143655840#0 143655840#1 116069186#1 116069186#1.112 116069186#1.128 5982169#0 5982169#0.394 5982169#1 5982169#2 114850085#0 114850085#1"/>
    </vehicle>
    <vehicle id="10.6" depart="48.00">
        <route edges="143009954 50846720#0 50846720#1 50846720#2 50846720#3 50846720#4 50846720#4.128 50846720#6 50846720#7 50846720#8 50846720#9 50846720#10 50846720#11 50846720#12 50846765 143655840#0 143655840#1 116069186#1 116069186#1.112 116069186#1.128 5982169#0 5982169#0.394 5982169#1 5982169#2 114850085#0 114850085#1"/>
    </vehicle>
    <vehicle id="9.6" depart="48.00">
        <route edges="gneE17.147 50846713#1 50846713#2 -142530979 244626213#3 50846744 50846724#0 50846724#1"/>
    </vehicle>
    <vehicle id="100.10" depart="48.19">
        <route edges="5965584 116069075#0 116069075#0.376 116069075#1 116069075#1.264 116069075#1.338 26467810 26467810.54 -50846769 -50846769.75 -50846765 -50846720#12 -50846720#11 -50846720#10 -50846720#9 -50846720#8 -50846720#7 -50846720#6 -50846720#6.20 243728741#4 -244626184#2 -5984107"/>
    </vehicle>
    <vehicle id="6.6" depart="49.42">
        <route edges="244626184#2 243728742#0 243728742#0.25 243728742#0.50 50846720#6 50846720#7 50846720#8 50846720#9 50846720#10 50846720#11 50846720#12 50846765 143655840#0 143655840#1 116069186#1 116069186#1.112 116069186#1.128 5982169#0 5982169#0.394 5982169#1 5982169#2 114850085#0 114850085#1"/>
    </vehicle>
    <vehicle id="0.17" depart="51.00">
        <route edges="26524637 114850054#1 116069075#0 116069075#0.376 116069075#1 116069075#1.264 116069075#1.338 26467810 26467810.54 -50846769 -50846769.75 -50846765 -50846720#12 -50846720#11 -50846720#10 -50846720#9 -50846720#8 -50846720#7 -50846720#6 -50846720#6.20 -50846720#4 -50846720#3 -50846720#2 5988429#0 5973964"/>
    </vehicle>
    <vehicle id="100.11" depart="53.01">
        <route edges="5965584 116069075#0 116069075#0.376 -50846782#2 -50846782#1 -50846782#0"/>
    </vehicle>
    <vehicle id="0.18" depart="54.00">
        <route edges="26524637 114850054#1 116069075#0 116069075#0.376 116069075#1 116069075#1.264 116069075#1.338 26467810 26467810.54 116069261 50846756 50846755#0 50846755#0.517 50846755#0.671 50846755#2.0 50846755#2.0.590 50846713#1 50846713#2 -142530979 244626213#3 50846744 50846724#0 -5965599#0"/>
    </vehicle>
    <vehicle id="5.4" depart="54.34">
        <route edges="243728741#0 49187078#5.0 49187078#5.22 50846749 50846753 50846753.54 116069186#1 116069186#1.112 116069186#1.128 5982169#0 5982169#0.394 5982169#1 5982169#2 114850085#0 114850085#1"/>
    </vehicle>
    <vehicle id="10.7" depart="56.00">
        <route edges="143009954 50846720#0 50846720#1 50846720#2 50846720#3 50846720#4 50846720#4.128 50846720#6 50846720#7 50846720#8 50846720#9 50846720#10 50846720#11 50846720#12 50846765 143655840#0 143655840#1 116069186#1 116069186#1.112 116069186#1.128 5982169#0 5982169#0.394 5982169#1 5982169#2 114850085#0 114850085#1"/>
    </vehicle>
    <vehicle id="9.7" depart="56.00">
        <route edges="gneE17.147 49187078#3 49187078#3.591 49187078#5.0 49187078#5.22 50846749 50846753 50846753.54 116069186#1"/>
    </vehicle>
    <vehicle id="0.19" depart="57.00">
        <route edges="26524637 114850054#1 116069075#0 116069075#0.376 116069075#1 116069075#1.264 116069075#1.338 26467810 26467810.54 116069261 50846756 50846755#0 50846755#0.517 50846755#0.671 50846755#2.0 50846755#2.0.590 50846755#3 50846755#3.65 50846755#3.145 50846755#4 50846755#5 -89534885"/>
    </vehicle>
    <vehicle id="6.7" depart="57.66">
        <route edges="244626184#2 243728742#0 243728742#0.25 243728742#0.50 -50846720#4 -50846720#3 -50846720#2 -50846720#1 -50846720#1.35 -50846720#0 -143009954"/>
    </vehicle>
    <vehicle id="100.12" depart="57.83">
        <route edges="5965584 116069075#0 116069075#0.376 116069075#1 116069075#1.264 116069075#1.338 26467810 26467810.54 -50846769 -50846769.75 -50846765 -50846720#12 -50846720#11 -50846720#10 -50846720#9 -50846720#8 -50846720#7 -50846720#6 -50846720#6.20 -50846720#4 -50846720#3 -50846720#2 -50846720#1 -50846720#1.35 142530980 -50846713#1 -5974128"/>
    </vehicle>
    <vehicle id="0.20" depart="60.00">
        <route edges="26524637 114850054#1 116069075#0 116069075#0.376 116069075#1 116069075#1.264 116069075#1.338 26467810 26467810.54 116069261 50846756 50846755#0 50846755#0.517 50846755#0.671 243728742#4"/>
    </vehicle>
    <vehicle id="7.2" depart="60.00">
        <route edges="5974128 49187078#3 49187078#3.591 49187078#5.0 49187078#5.22 50846749 50846753 50846753.54 116069186#1 116069186#1.112 116069186#1.128 5982169#0 5982169#0.394 5982169#1 5982169#2 114850085#0 114850085#1"/>
    </vehicle>
    <vehicle id="8.2" depart="60.00">
        <route edges="50846710#1.45 -50846713#2 -50846713#1 -5974128"/>
    </vehicle>
    <vehicle id="100.13" depart="62.65">
        <route edges="5965584 116069075#0 116069075#0.376 116069075#1 116069075#1.264 116069075#1.338 26467810 26467810.54 -50846769 -50846769.75 -50846765 -50846720#12 -50846720#11 -50846720#10 -50846720#9 -50846720#8 -50846720#7 -50846720#6 -50846720#6.20 -50846720#4 -50846720#3 -50846720#2 -50846720#1 -50846720#1.35 142530980 -50846713#1 -5974128"/>
    </vehicle>
    <vehicle id="0.21" depart="63.00">
        <route edges="26524637 114850054#1 116069075#0 116069075#0.376 116069075#1 116069075#1.264 116069075#1.338 26467810 26467810.54 116069261 50846756 50846755#0 50846755#0.517 50846755#0.671 243728741#2 243728741#3 243728741#3.83 50846720#6 50846720#7 50846720#8 50846720#9 50846720#10 50846720#11 50846720#12 50846765 143655840#0 143655840#1 116069186#1 116069186#1.112 116069186#1.128 5982169#0 5982169#0.394 5982169#1 5982169#2 114850085#0 114850085#1"/>
    </vehicle>
    <vehicle id="10.8" depart="64.00">
        <route edges="143009954 50846720#0 50846720#1 50846720#2 50846720#3 50846720#4 50846720#4.128 50846720#6 50846720#7 50846720#8 50846720#9 50846720#10 50846720#11 50846720#12 50846765 143655840#0 143655840#1 116069186#1 116069186#1.112 116069186#1.128 5982169#0 5982169#0.394 5982169#1 5982169#2 114850085#0 114850085#1"/>
    </vehicle>
    <vehicle id="9.8" depart="64.00">
        <route edges="gneE17.147 49187078#3 49187078#3.591 49187078#5.0 49187078#5.22 50846749 50846753 50846753.54 116069186#1 116069186#1.112 116069186#1.128 5982169#0 5982169#0.394 5982169#1 5982169#2 114850085#0 114850085#1"/>
    </vehicle>
    <vehicle id="2.2" depart="65.45">
        <route edges="50846782#2 50846782#2.53 5982169#1 5982169#2 114850085#0 114850085#1"/>
    </vehicle>
    <vehicle id="6.8" depart="65.90">
        <route edges="244626184#2 243728742#0 243728742#0.25 243728742#0.50 243728742#1 243728742#2.0 243728742#2.47 50846755#2.0 50846755#2.0.590 50846713#1 50846713#2 -142530979 244626213#3 50846744 50846724#0 50846724#1"/>
    </vehicle>
    <vehicle id="0.22" depart="66.00">
        <route edges="26524637 114850054#1 116069075#0 116069075#0.376 116069075#1 116069075#1.264 116069075#1.338 26467810 26467810.54 116069261 50846756 50846755#0 50846755#0.517 50846755#0.671 50846755#2.0 50846755#2.0.590 -5974128"/>
    </vehicle>
    <vehicle id="100.14" depart="67.47">
        <route edges="5965584 116069075#0 116069075#0.376 116069075#1 116069075#1.264 116069075#1.338 26467810 26467810.54 116069261 50846756 50846755#0 50846755#0.517 50846755#0.671 50846755#2.0 50846755#2.0.590 50846755#3 50846755#3.65 50846755#3.145 50846755#4 50846755#5 -89534885"/>
    </vehicle>
    <vehicle id="5.5" depart="67.92">
        <route edges="243728741#0 243728741#2 243728741#3 243728741#3.83 -50846720#4 -50846720#3 -50846720#2 -50846720#1 -50846720#1.35 -50846720#0 -143009954"/>
    </vehicle>
    <vehicle id="3.2" depart="67.92">
        <route edges="5968215#0 5968215#0.389 5982169#0 5982169#0.394 5982169#1 5982169#2 114850085#0 114850085#1"/>
    </vehicle>
    <vehicle id="0.23" depart="69.00">
        <route edges="26524637 114850054#1 116069075#0 116069075#0.376 116069075#1 116069075#1.264 116069075#1.338 26467810 26467810.54 116069261 50846756 50846755#0 50846755#0.517 50846755#0.671 50846755#2.0 50846755#2.0.590 50846755#3 50846755#3.65 50846755#3.145 50846755#4 50846755#5 -89534885"/>
    </vehicle>
    <vehicle id="0.24" depart="72.00">
        <route edges="26524637 114850054#1 116069075#0 116069075#0.376 116069075#1 116069075#1.264 116069075#1.338 26467810 26467810.54 116069261 50846756 50846755#0 50846755#0.517 50846755#0.671 243728741#2 243728741#3 243728741#3.83 243728741#4 -244626184#2 -5984107"/>
    </vehicle>
    <vehicle id="10.9" depart="72.00">
        <route edges="143009954 -50846713#2 -50846713#1 -5974128"/>
    </vehicle>
    <vehicle id="9.9" depart="72.00">
        <route edges="gneE17.147 49187078#3 49187078#3.591 49187078#5.0 49187078#5.22 50846749 50846753 50846753.54 116069186#1 116069186#1.112 116069186#1.128 5982169#0 5982169#0.394 5982169#1 5982169#2 114850085#0 114850085#1"/>
    </vehicle>
    <vehicle id="100.15" depart="72.28">
        <route edges="5965584 116069075#0 116069075#0.376 116069075#1 116069075#1.264 116069075#1.338 26467810 26467810.54 -50846769 -50846769.75 -50846765 -50846720#12 -50846720#11 -50846720#10 -50846720#9 -50846720#8 -50846720#7 -50846720#6 -50846720#6.20 -50846720#4 -50846720#3 -50846720#2 -50846720#1 -50846720#1.35 -50846720#0 -143009954"/>
    </vehicle>
    <vehicle id="6.9" depart="74.13">
        <route edges="244626184#2 243728742#0 243728742#0.25 243728742#0.50 243728742#1 243728742#2.0 243728742#2.47 243728742#4"/>
    </vehicle>
    <vehicle id="0.25" depart="75.00">
        <route edges="26524637 114850054#1 116069075#0 116069075#0.376 116069075#1 116069075#1.264 116069075#1.338 26467810 26467810.54 116069261 50846756 50846755#0 50846755#0.517 50846755#0.671 50846755#2.0 50846755#2.0.590 -5974128"/>
    </vehicle>
    <vehicle id="100.16" depart="77.10">
        <route edges="5965584 116069075#0 116069075#0.376 116069075#1 116069075#1.264 116069075#1.338 26467810 26467810.54 116069261 50846756 50846755#0 50846755#0.517 50846755#0.671 243728741#2 243728741#3 243728741#3.83 243728741#4 -244626184#2 -5984107"/>
    </vehicle>
    <vehicle id="0.26" depart="78.00">
        <route edges="26524637 114850054#1 116069075#0 116069075#0.376 116069075#1 116069075#1.264 116069075#1.338 26467810 26467810.54 116069261 50846756 50846755#0 50846755#0.517 50846755#0.671 243728742#4"/>
    </vehicle>
    <vehicle id="1.1" depart="78.26">
        <route edges="5965712 116069075#1 116069075#1.264 116069075#1.338 26467810 26467810.54 116069261 50846756 50846755#0 50846755#0.517 50846755#0.671 243728741#2 243728741#3 243728741#3.83 243728741#4 -244626184#2 -5984107"/>
    </vehicle>