<?xml version="1.0" encoding="UTF-8"?>

<!-- generated on Mon Oct 15 11:27:16 2018 by Eclipse SUMO jtrrouter Version v1_0_1+0266-215b34d
<configuration xmlns:xsi="http://www.w3.org/2001/XMLSchema-instance" xsi:noNamespaceSchemaLocation="http://sumo.dlr.de/xsd/jtrrouterConfiguration.xsd">

    <input>
        <net-file value="moco.net.xml"/>
        <route-files value="moco.flows.xml"/>
        <turn-ratio-files value="moco.turn.xml"/>
    </input>

    <output>
        <output-file value="moco_jtr.rou.xml"/>
    </output>

    <processing>
        <no-internal-links value="true"/>
        <remove-loops value="true"/>
        <accept-all-destinations value="true"/>
    </processing>

</configuration>
-->

<routes xmlns:xsi="http://www.w3.org/2001/XMLSchema-instance" xsi:noNamespaceSchemaLocation="http://sumo.dlr.de/xsd/routes_file.xsd">
    <vType id="CarIIDM" carFollowModel="IDM" laneChangeModel="LC2013" lcStrategic="5" lcSpeedGain="3" length="5.0" color="0,1,0" accel="1.5" decel="2" tau="0.8" sigma="0.0" impatience="0.0" minGap="3.0" maxSpeed="30.0"/>
    <vType id="CarA" carFollowModel="IDM" laneChangeModel="LC2013" lcStrategic="5" lcSpeedGain="3" length="5.0" color="0,1,0" accel="1.5" decel="2" tau="1.1" sigma="0.0" impatience="0.0" minGap="3.0" maxSpeed="30.0"/>
    <vType id="CarM" carFollowModel="IDM" laneChangeModel="LC2013" lcStrategic="5" lcSpeedGain="3" length="5.0" color="0,0,1" accel="1.5" decel="2" tau="2.05" sigma="0.0" impatience="0.0" minGap="4.0" maxSpeed="30.0"/>
    <vehicle id="veh1" depart="0.00" type="CarM" departSpeed="max" departLane="free">
        <route edges="26524637 114850054#1 116069075#0 116069075#0.376 116069075#1 116069075#1.264 116069075#1.338 26467810 26467810.54 116069261 50846756 50846755#0 50846755#0.517 50846755#0.671 50846755#2.0 50846755#2.0.590 50846755#3 50846755#3.65 50846755#3.145 50846755#4 50846755#5 -89534885"/>
    </vehicle>
    <vehicle id="veh2" depart="0.00" type="CarM" departSpeed="max" departLane="free">
        <route edges="5965712 116069075#1 116069075#1.264 116069075#1.338 26467810 26467810.54 116069261 50846756 50846755#0 50846755#0.517 50846755#0.671 243728742#4"/>
    </vehicle>
    <vehicle id="veh3" depart="0.00" type="CarA" departSpeed="max" departLane="free">
        <route edges="143009954 50846720#0 50846720#1 50846720#2 50846720#3 50846720#4 50846720#4.128 243728741#4 -244626184#2 -5984107"/>
    </vehicle>
    <vehicle id="veh4" depart="0.00" type="CarM" departSpeed="max" departLane="free">
        <route edges="5965584 116069075#0 116069075#0.376 116069075#1 116069075#1.264 116069075#1.338 26467810 26467810.54 -50846769 -50846769.75 -50846765 -50846720#12 -50846720#11 -50846720#10 -50846720#9 -50846720#8 -50846720#7 -50846720#6 -50846720#6.20 243728742#1 243728742#2.0 243728742#2.47 243728742#4"/>
    </vehicle>
    <vehicle id="veh5" depart="0.00" type="CarM" departSpeed="max" departLane="free">
        <route edges="50846782#2 50846782#2.53 116069075#1 116069075#1.264 116069075#1.338 26467810 26467810.54 116069261 50846756 50846755#0 50846755#0.517 50846755#0.671 243728742#4"/>
    </vehicle>
    <vehicle id="veh6" depart="0.00" type="CarA" departSpeed="max" departLane="free">
        <route edges="5968215#0 5968215#0.389 26467810 26467810.54 116069261 50846756 50846755#0 50846755#0.517 50846755#0.671 50846755#2.0 50846755#2.0.590 50846755#3 50846755#3.65 50846755#3.145 50846755#4 50846755#5 -89534885"/>
    </vehicle>
    <vehicle id="veh7" depart="0.00" type="CarM" departSpeed="max" departLane="free">
        <route edges="-5968215#2 5982169#0 5982169#0.394 5982169#1 5982169#2 114850085#0 114850085#1"/>
    </vehicle>
    <vehicle id="veh8" depart="0.00" type="CarM" departSpeed="max" departLane="free">
        <route edges="243728741#0 50846755#2.0 50846755#2.0.590 50846755#3 50846755#3.65 50846755#3.145 50846755#4 50846755#5 -89534885"/>
    </vehicle>
    <vehicle id="veh9" depart="0.00" type="CarM" departSpeed="max" departLane="free">
        <route edges="244626184#2 243728742#0 243728742#0.25 243728742#0.50 50846720#6 50846720#7 50846720#8 50846720#9 50846720#10 50846720#11 50846720#12 50846765 143655840#0 143655840#1 116069186#1 116069186#1.112 116069186#1.128 5982169#0 5982169#0.394 5982169#1 5982169#2 114850085#0 114850085#1"/>
    </vehicle>
    <vehicle id="veh10" depart="0.00" type="CarA" departSpeed="max" departLane="free">
        <route edges="5974128 50846713#1 50846713#2 -142530979 244626213#3 50846744 50846724#0 50846724#1"/>
    </vehicle>
    <vehicle id="veh11" depart="0.00" type="CarA" departSpeed="max" departLane="free">
        <route edges="50846710#1.45 50846720#0 50846720#1 50846720#2 50846720#3 50846720#4 50846720#4.128 50846720#6 50846720#7 50846720#8 50846720#9 50846720#10 50846720#11 50846720#12 50846765 143655840#0 143655840#1 116069186#1 116069186#1.112 116069186#1.128 -5968215#0 -5971039#0"/>
    </vehicle>
    <vehicle id="veh12" depart="0.00" type="CarA" departSpeed="max" departLane="free">
        <route edges="gneE17.147 49187078#3 49187078#3.591 49187078#5.0 49187078#5.22 50846749 50846753 50846753.54 116069186#1 116069186#1.112 116069186#1.128 5982169#0 5982169#0.394 5982169#1 5982169#2 114850085#0 114850085#1"/>
    </vehicle>
    <vehicle id="veh13" depart="3.00" type="CarM" departSpeed="max" departLane="free">
        <route edges="26524637 114850054#1 116069075#0 116069075#0.376 116069075#1 116069075#1.264 116069075#1.338 26467810 26467810.54 -50846769 -50846769.75 -50846765 -50846720#12 -50846720#11 -50846720#10 -50846720#9 -50846720#8 -50846720#7 -50846720#6 -50846720#6.20 -50846720#4 -50846720#3 -50846720#2 -50846720#1 -50846720#1.35 142530980 -50846713#1 50846755#3 50846755#3.65 50846755#3.145 50846755#4 50846755#5 -89534885"/>
    </vehicle>
    <vehicle id="veh14" depart="4.82" type="CarA" departSpeed="max" departLane="free">
        <route edges="5965584 116069075#0 116069075#0.376 116069075#1 116069075#1.264 116069075#1.338 26467810 26467810.54 116069261 50846756 50846755#0 50846755#0.517 50846755#0.671 50846755#2.0 50846755#2.0.590 50846755#3 50846755#3.65 50846755#3.145 50846755#4 50846755#5 -89534885"/>
    </vehicle>
    <vehicle id="veh15" depart="6.00" type="CarM" departSpeed="max" departLane="free">
        <route edges="26524637 114850054#1 116069075#0 116069075#0.376 116069075#1 116069075#1.264 116069075#1.338 26467810 26467810.54 -50846769 -50846769.75 -50846765 -50846720#12 -50846720#11 -50846720#10 -50846720#9 -50846720#8 -50846720#7 -50846720#6 -50846720#6.20 -50846720#4 -50846720#3 -50846720#2 -50846720#1 -50846720#1.35 -50846720#0 -143009954"/>
    </vehicle>
    <vehicle id="veh16" depart="8.00" type="CarM" departSpeed="max" departLane="free">
        <route edges="143009954 -50846713#2 -50846713#1 49187078#3 49187078#3.591 49187078#5.0 49187078#5.22 50846749 50846753 50846753.54 116069186#1 116069186#1.112 116069186#1.128 5982169#0 5982169#0.394 5982169#1 5982169#2 114850085#0 114850085#1"/>
    </vehicle>
    <vehicle id="veh17" depart="8.00" type="CarM" departSpeed="max" departLane="free">
        <route edges="gneE17.147 49187078#3 49187078#3.591 49187078#5.0 49187078#5.22 50846749 50846753 50846753.54 116069186#1 116069186#1.112 116069186#1.128 5982169#0 5982169#0.394 5982169#1 5982169#2 114850085#0 114850085#1"/>
    </vehicle>
    <vehicle id="veh18" depart="8.24" type="CarM" departSpeed="max" departLane="free">
        <route edges="244626184#2 243728742#0 243728742#0.25 243728742#0.50 50846720#6 50846720#7 50846720#8 50846720#9 50846720#10 50846720#11 50846720#12 50846765 143655840#0 143655840#1 116069186#1 116069186#1.112 116069186#1.128 5982169#0 5982169#0.394 5982169#1 5982169#2 114850085#0 114850085#1"/>
    </vehicle>
    <vehicle id="veh19" depart="9.00" type="CarA" departSpeed="max" departLane="free">
        <route edges="26524637 114850054#1 116069075#0 116069075#0.376 116069075#1 116069075#1.264 116069075#1.338 -5968215#0 -5971039#0"/>
    </vehicle>
    <vehicle id="veh20" depart="9.64" type="CarM" departSpeed="max" departLane="free">
        <route edges="5965584 116069075#0 116069075#0.376 116069075#1 116069075#1.264 116069075#1.338 26467810 26467810.54 116069261 50846756 50846755#0 50846755#0.517 50846755#0.671 50846755#2.0 50846755#2.0.590 50846755#3 50846755#3.65 50846755#3.145 50846755#4 50846755#5 -89534885"/>
    </vehicle>
    <vehicle id="veh21" depart="12.00" type="CarM" departSpeed="max" departLane="free">
        <route edges="26524637 114850054#1 116069075#0 116069075#0.376 116069075#1 116069075#1.264 116069075#1.338 26467810 26467810.54 116069261 50846756 50846755#0 50846755#0.517 50846755#0.671 50846755#2.0 50846755#2.0.590 50846755#3 50846755#3.65 50846755#3.145 50846755#4 50846755#5 -89534885"/>
    </vehicle>
    <vehicle id="veh22" depart="13.58" type="CarM" departSpeed="max" departLane="free">
        <route edges="243728741#0 50846755#2.0 50846755#2.0.590 50846755#3 50846755#3.65 50846755#3.145 50846755#4 50846755#5 -89534885"/>
    </vehicle>
    <vehicle id="veh23" depart="14.46" type="CarA" departSpeed="max" departLane="free">
        <route edges="5965584 116069075#0 116069075#0.376 116069075#1 116069075#1.264 116069075#1.338 26467810 26467810.54 -50846769 -50846769.75 -50846765 -50846720#12 -50846720#11 -50846720#10 -50846720#9 -50846720#8 -50846720#7 -50846720#6 -50846720#6.20 243728741#4 -244626184#2 -5984107"/>
    </vehicle>
    <vehicle id="veh24" depart="15.00" type="CarM" departSpeed="max" departLane="free">
        <route edges="26524637 114850054#1 116069075#0 116069075#0.376 116069075#1 116069075#1.264 116069075#1.338 26467810 26467810.54 116069261 50846756 50846755#0 50846755#0.517 50846755#0.671 243728741#2 243728741#3 243728741#3.83 -50846720#4 -50846720#3 -50846720#2 -50846720#1 -50846720#1.35 142530980 -50846713#1 50846755#3 50846755#3.65 50846755#3.145 50846755#4 50846755#5 -89534885"/>
    </vehicle>
    <vehicle id="veh25" depart="16.00" type="CarM" departSpeed="max" departLane="free">
        <route edges="143009954 50846720#0 50846720#1 50846720#2 50846720#3 50846720#4 50846720#4.128 50846720#6 50846720#7 50846720#8 50846720#9 50846720#10 50846720#11 50846720#12 50846765 143655840#0 143655840#1 116069186#1 116069186#1.112 116069186#1.128 5982169#0 5982169#0.394 5982169#1 5982169#2 114850085#0 114850085#1"/>
    </vehicle>
    <vehicle id="veh26" depart="16.00" type="CarM" departSpeed="max" departLane="free">
        <route edges="gneE17.147 49187078#3 49187078#3.591 243728742#4"/>
    </vehicle>
    <vehicle id="veh27" depart="16.47" type="CarM" departSpeed="max" departLane="free">
        <route edges="244626184#2 243728742#0 243728742#0.25 243728742#0.50 50846720#6 50846720#7 50846720#8 50846720#9 50846720#10 50846720#11 50846720#12 50846765 143655840#0 143655840#1 116069186#1 116069186#1.112 116069186#1.128 5982169#0 5982169#0.394 5982169#1 5982169#2 114850085#0 114850085#1"/>
    </vehicle>
    <vehicle id="veh28" depart="18.00" type="CarM" departSpeed="max" departLane="free">
        <route edges="26524637 114850054#1 116069075#0 116069075#0.376 116069075#1 116069075#1.264 116069075#1.338 26467810 26467810.54 116069261 50846756 50846755#0 50846755#0.517 50846755#0.671 50846755#2.0 50846755#2.0.590 50846755#3 50846755#3.65 50846755#3.145 50846755#4 50846755#5 -89534885"/>
    </vehicle>
    <vehicle id="veh29" depart="19.28" type="CarA" departSpeed="max" departLane="free">
        <route edges="5965584 116069075#0 116069075#0.376 116069075#1 116069075#1.264 116069075#1.338 26467810 26467810.54 116069261 50846756 50846755#0 50846755#0.517 50846755#0.671 243728741#2 243728741#3 243728741#3.83 243728741#4 -244626184#2 -5984107"/>
    </vehicle>
    <vehicle id="veh30" depart="21.00" type="CarA" departSpeed="max" departLane="free">
        <route edges="26524637 114850054#1 116069075#0 116069075#0.376 116069075#1 116069075#1.264 116069075#1.338 26467810 26467810.54 116069261 50846756 50846755#0 50846755#0.517 50846755#0.671 50846755#2.0 50846755#2.0.590 50846755#3 50846755#3.65 50846755#3.145 50846755#4 50846755#5 -89534885"/>
    </vehicle>
    <vehicle id="veh31" depart="24.00" type="CarA" departSpeed="max" departLane="free">
        <route edges="26524637 114850054#1 116069075#0 116069075#0.376 116069075#1 116069075#1.264 116069075#1.338 26467810 26467810.54 -50846769 -50846769.75 -50846765 -50846720#12 -50846720#11 -50846720#10 -50846720#9 -50846720#8 -50846720#7 -50846720#6 -50846720#6.20 -50846720#4 -50846720#3 -50846720#2 -50846720#1 -50846720#1.35 -50846720#0 -142530979 244626213#3 50846744 50846724#0 50846724#1"/>
    </vehicle>
    <vehicle id="veh32" depart="24.00" type="CarM" departSpeed="max" departLane="free">
        <route edges="143009954 50846720#0 50846720#1 50846720#2 50846720#3 50846720#4 50846720#4.128 50846720#6 50846720#7 50846720#8 50846720#9 50846720#10 50846720#11 50846720#12 50846765 143655840#0 143655840#1 116069186#1 116069186#1.112 116069186#1.128 5982169#0 5982169#0.394 5982169#1 5982169#2 114850085#0 114850085#1"/>
    </vehicle>
    <vehicle id="veh33" depart="24.00" type="CarM" departSpeed="max" departLane="free">
        <route edges="gneE17.147 49187078#3 49187078#3.591 243728741#2 243728741#3 243728741#3.83 50846720#6 50846720#7 50846720#8 50846720#9 50846720#10 50846720#11 50846720#12 50846765 143655840#0 143655840#1 116069186#1 116069186#1.112 116069186#1.128 5982169#0 5982169#0.394 5982169#1 5982169#2 114850085#0 114850085#1"/>
    </vehicle>
    <vehicle id="veh34" depart="24.09" type="CarM" departSpeed="max" departLane="free">
        <route edges="5965584 116069075#0 116069075#0.376 116069075#1 116069075#1.264 116069075#1.338 26467810 26467810.54 116069261 50846756 50846755#0 50846755#0.517 50846755#0.671 243728741#2 243728741#3 243728741#3.83 243728741#4 -244626184#2 -5984107"/>
    </vehicle>
    <vehicle id="veh35" depart="24.71" type="CarM" departSpeed="max" departLane="free">
        <route edges="244626184#2 243728742#0 243728742#0.25 243728742#0.50 243728742#1 243728742#2.0 gneE15 gneE16 49187078#5.22 50846749 50846753 50846753.54 116069186#1 116069186#1.112 116069186#1.128 5982169#0 5982169#0.394 5982169#1 5982169#2 114850085#0 114850085#1"/>
    </vehicle>
    <vehicle id="veh36" depart="27.00" type="CarM" departSpeed="max" departLane="free">
        <route edges="26524637 114850054#1 116069075#0 116069075#0.376 116069075#1 116069075#1.264 116069075#1.338 26467810 26467810.54 116069261 50846756 50846755#0 50846755#0.517 50846755#0.671 243728741#2 243728741#3 243728741#3.83 -50846720#4 -50846720#3 -50846720#2 -50846720#1 -50846720#1.35 -50846720#0 -143009954"/>
    </vehicle>
    <vehicle id="veh37" depart="27.17" type="CarA" departSpeed="max" departLane="free">
        <route edges="243728741#0 49187078#5.0 49187078#5.22 50846749 50846753 50846753.54 116069186#1 116069186#1.112 116069186#1.128 5982169#0 5982169#0.394 5982169#1 5982169#2 114850085#0 114850085#1"/>
    </vehicle>
    <vehicle id="veh38" depart="28.91" type="CarA" departSpeed="max" departLane="free">
        <route edges="5965584 116069075#0 116069075#0.376 116069075#1 116069075#1.264 116069075#1.338 26467810 26467810.54 116069261 50846756 50846755#0 50846755#0.517 50846755#0.671 50846755#2.0 50846755#2.0.590 50846755#3 50846755#3.65 50846755#3.145 50846755#4 50846755#5 -89534885"/>
    </vehicle>
    <vehicle id="veh39" depart="30.00" type="CarM" departSpeed="max" departLane="free">
        <route edges="26524637 114850054#1 116069075#0 116069075#0.376 116069075#1 116069075#1.264 116069075#1.338 26467810 26467810.54 116069261 50846756 50846755#0 50846755#0.517 50846755#0.671 50846755#2.0 50846755#2.0.590 50846755#3 50846755#3.65 50846755#3.145 50846755#4 50846755#5 -89534885"/>
    </vehicle>
    <vehicle id="veh40" depart="30.00" type="CarM" departSpeed="max" departLane="free">
        <route edges="5974128 50846713#1 50846713#2 -142530979 244626213#3 50846744 50846724#0 50846724#1"/>
    </vehicle>
    <vehicle id="veh41" depart="30.00" type="CarM" departSpeed="max" departLane="free">
        <route edges="50846710#1.45 50846720#0 50846720#1 50846720#2 50846720#3 50846720#4 50846720#4.128 50846720#6 50846720#7 50846720#8 50846720#9 50846720#10 50846720#11 50846720#12 50846765 143655840#0 143655840#1 116069186#1 116069186#1.112 116069186#1.128 5982169#0 5982169#0.394 -5965712 5972214#1"/>
    </vehicle>
    <vehicle id="veh42" depart="32.00" type="CarA" departSpeed="max" departLane="free">
        <route edges="143009954 -50846713#2 -50846713#1 50846755#3 50846755#3.65 50846755#3.145 50846755#4 50846755#5 -89534885"/>
    </vehicle>
    <vehicle id="veh43" depart="32.00" type="CarM" departSpeed="max" departLane="free">
        <route edges="gneE17.147 49187078#3 49187078#3.591 49187078#5.0 49187078#5.22 50846749 50846753 50846753.54 116069186#1 116069186#1.112 116069186#1.128 5982169#0 5982169#0.394 5982169#1 5982169#2 114850085#0 114850085#1"/>
    </vehicle>
    <vehicle id="veh44" depart="32.73" type="CarM" departSpeed="max" departLane="free">
        <route edges="50846782#2 50846782#2.53 116069075#1 116069075#1.264 116069075#1.338 26467810 26467810.54 -50846769 -50846769.75 -50846765 -50846720#12 -50846720#11 -50846720#10 -50846720#9 -50846720#8 -50846720#7 -50846720#6 -50846720#6.20 -50846720#4 -50846720#3 -50846720#2 -50846720#1 -50846720#1.35 -50846720#0 -143009954"/>
    </vehicle>
    <vehicle id="veh45" depart="32.95" type="CarM" departSpeed="max" departLane="free">
        <route edges="244626184#2 243728742#0 243728742#0.25 243728742#0.50 -50846720#4 -50846720#3 -50846720#2 -50846720#1 -50846720#1.35 -50846720#0 -143009954"/>
    </vehicle>
    <vehicle id="veh46" depart="33.00" type="CarM" departSpeed="max" departLane="free">
        <route edges="26524637 114850054#1 116069075#0 116069075#0.376 116069075#1 116069075#1.264 116069075#1.338 26467810 26467810.54 116069261 50846756 50846755#0 50846755#0.517 50846755#0.671 50846755#2.0 50846755#2.0.590 -5974128"/>
    </vehicle>
    <vehicle id="veh47" depart="33.73" type="CarM" departSpeed="max" departLane="free">
        <route edges="5965584 116069075#0 116069075#0.376 116069075#1 116069075#1.264 116069075#1.338 26467810 26467810.54 116069261 50846756 50846755#0 50846755#0.517 50846755#0.671 50846755#2.0 50846755#2.0.590 50846755#3 50846755#3.65 50846755#3.145 50846755#4 50846755#5 -89534885"/>
    </vehicle>
    <vehicle id="veh48" depart="33.96" type="CarM" departSpeed="max" departLane="free">
        <route edges="5968215#0 5968215#0.389 5982169#0 5982169#0.394 5982169#1 5982169#2 114850085#0 114850085#1"/>
    </vehicle>
    <vehicle id="veh49" depart="36.00" type="CarM" departSpeed="max" departLane="free">
        <route edges="26524637 114850054#1 116069075#0 116069075#0.376 116069075#1 116069075#1.264 116069075#1.338 26467810 26467810.54 116069261 50846756 50846755#0 50846755#0.517 50846755#0.671 50846755#2.0 50846755#2.0.590 -5974128"/>
    </vehicle>
    <vehicle id="veh50" depart="38.55" type="CarM" departSpeed="max" departLane="free">
        <route edges="5965584 116069075#0 116069075#0.376 116069075#1 116069075#1.264 116069075#1.338 26467810 26467810.54 -50846769 -50846769.75 -50846765 -50846720#12 -50846720#11 -50846720#10 -50846720#9 -50846720#8 -50846720#7 -50846720#6 -50846720#6.20 -50846720#4 -50846720#3 -50846720#2 -50846720#1 -50846720#1.35 -50846720#0 -143009954"/>
    </vehicle>
    <vehicle id="veh51" depart="39.00" type="CarA" departSpeed="max" departLane="free">
        <route edges="26524637 114850054#1 116069075#0 116069075#0.376 116069075#1 116069075#1.264 116069075#1.338 26467810 26467810.54 -50846769 -50846769.75 -50846765 -50846720#12 -50846720#11 -50846720#10 -50846720#9 -50846720#8 -50846720#7 -50846720#6 -50846720#6.20 243728742#1 243728742#2.0 243728742#2.47 243728742#4"/>
    </vehicle>
    <vehicle id="veh52" depart="40.00" type="CarM" departSpeed="max" departLane="free">
        <route edges="143009954 50846720#0 50846720#1 50846720#2 50846720#3 50846720#4 50846720#4.128 50846720#6 50846720#7 50846720#8 50846720#9 50846720#10 50846720#11 50846720#12 50846765 143655840#0 143655840#1 116069186#1 116069186#1.112 116069186#1.128 5982169#0 5982169#0.394 5982169#1 5982169#2 114850085#0 114850085#1"/>
    </vehicle>
    <vehicle id="veh53" depart="40.00" type="CarM" departSpeed="max" departLane="free">
        <route edges="gneE17.147 49187078#3 49187078#3.591 49187078#5.0 49187078#5.22 50846749 50846753 50846753.54 116069186#1 116069186#1.112 116069186#1.128 5982169#0 5982169#0.394 5982169#1 5982169#2 114850085#0 114850085#1"/>
    </vehicle>
    <vehicle id="veh54" depart="40.75" type="CarM" departSpeed="max" departLane="free">
        <route edges="243728741#0 243728741#2 243728741#3 243728741#3.83 243728741#4 -244626184#2 -5984107"/>
    </vehicle>
    <vehicle id="veh55" depart="41.19" type="CarM" departSpeed="max" departLane="free">
        <route edges="244626184#2 243728742#0 243728742#0.25 243728742#0.50 50846720#6 50846720#7 50846720#8 50846720#9 50846720#10 50846720#11 50846720#12 50846765 143655840#0 143655840#1 116069186#1 116069186#1.112 116069186#1.128 5982169#0 5982169#0.394 -50846782#2 -50846782#1 -50846782#0"/>
    </vehicle>
    <vehicle id="veh56" depart="42.00" type="CarM" departSpeed="max" departLane="free">
        <route edges="26524637 114850054#1 116069075#0 116069075#0.376 116069075#1 116069075#1.264 116069075#1.338 26467810 26467810.54 116069261 50846756 50846755#0 50846755#0.517 50846755#0.671 243728741#2 243728741#3 243728741#3.83 -50846720#4 -50846720#3 -50846720#2 5988429#0 5973964"/>
    </vehicle>
    <vehicle id="veh57" depart="43.37" type="CarM" departSpeed="max" departLane="free">
        <route edges="5965584 116069075#0 116069075#0.376 116069075#1 116069075#1.264 116069075#1.338 26467810 26467810.54 -50846769 -50846769.75 -50846765 -50846720#12 -50846720#11 -50846720#10 -50846720#9 -50846720#8 -50846720#7 -50846720#6 -50846720#6.20 243728742#1 243728742#2.0 243728742#2.47 243728742#4"/>
    </vehicle>
    <vehicle id="veh58" depart="45.00" type="CarA" departSpeed="max" departLane="free">
        <route edges="26524637 114850054#1 116069075#0 116069075#0.376 116069075#1 116069075#1.264 116069075#1.338 26467810 26467810.54 116069261 50846756 50846755#0 50846755#0.517 50846755#0.671 50846755#2.0 50846755#2.0.590 50846755#3 50846755#3.65 50846755#3.145 50846755#4 50846755#5 -89534885"/>
    </vehicle>
    <vehicle id="veh59" depart="48.00" type="CarM" departSpeed="max" departLane="free">
        <route edges="26524637 114850054#1 116069075#0 116069075#0.376 116069075#1 116069075#1.264 116069075#1.338 26467810 26467810.54 116069261 50846756 50846755#0 50846755#0.517 50846755#0.671 50846755#2.0 50846755#2.0.590 50846713#1 50846713#2 50846720#0 50846720#1 50846720#2 50846720#3 50846720#4 50846720#4.128 50846720#6 50846720#7 50846720#8 50846720#9 50846720#10 50846720#11 50846720#12 50846765 143655840#0 143655840#1 116069186#1 116069186#1.112 116069186#1.128 5982169#0 5982169#0.394 5982169#1 5982169#2 114850085#0 114850085#1"/>
    </vehicle>
    <vehicle id="veh60" depart="48.00" type="CarA" departSpeed="max" departLane="free">
        <route edges="143009954 50846720#0 50846720#1 50846720#2 50846720#3 50846720#4 50846720#4.128 50846720#6 50846720#7 50846720#8 50846720#9 50846720#10 50846720#11 50846720#12 50846765 143655840#0 143655840#1 116069186#1 116069186#1.112 116069186#1.128 5982169#0 5982169#0.394 5982169#1 5982169#2 114850085#0 114850085#1"/>
    </vehicle>
    <vehicle id="veh61" depart="48.00" type="CarM" departSpeed="max" departLane="free">
        <route edges="gneE17.147 50846713#1 50846713#2 -142530979 244626213#3 50846744 50846724#0 50846724#1"/>
    </vehicle>
    <vehicle id="veh62" depart="48.19" type="CarM" departSpeed="max" departLane="free">
        <route edges="5965584 116069075#0 116069075#0.376 116069075#1 116069075#1.264 116069075#1.338 26467810 26467810.54 -50846769 -50846769.75 -50846765 -50846720#12 -50846720#11 -50846720#10 -50846720#9 -50846720#8 -50846720#7 -50846720#6 -50846720#6.20 243728741#4 -244626184#2 -5984107"/>
    </vehicle>
    <vehicle id="veh63" depart="49.42" type="CarM" departSpeed="max" departLane="free">
        <route edges="244626184#2 243728742#0 243728742#0.25 243728742#0.50 50846720#6 50846720#7 50846720#8 50846720#9 50846720#10 50846720#11 50846720#12 50846765 143655840#0 143655840#1 116069186#1 116069186#1.112 116069186#1.128 5982169#0 5982169#0.394 5982169#1 5982169#2 114850085#0 114850085#1"/>
    </vehicle>
    <vehicle id="veh64" depart="51.00" type="CarM" departSpeed="max" departLane="free">
        <route edges="26524637 114850054#1 116069075#0 116069075#0.376 116069075#1 116069075#1.264 116069075#1.338 26467810 26467810.54 -50846769 -50846769.75 -50846765 -50846720#12 -50846720#11 -50846720#10 -50846720#9 -50846720#8 -50846720#7 -50846720#6 -50846720#6.20 -50846720#4 -50846720#3 -50846720#2 5988429#0 5973964"/>
    </vehicle>
    <vehicle id="veh65" depart="53.01" type="CarM" departSpeed="max" departLane="free">
        <route edges="5965584 116069075#0 116069075#0.376 -50846782#2 -50846782#1 -50846782#0"/>
    </vehicle>
    <vehicle id="veh66" depart="54.00" type="CarA" departSpeed="max" departLane="free">
        <route edges="26524637 114850054#1 116069075#0 116069075#0.376 116069075#1 116069075#1.264 116069075#1.338 26467810 26467810.54 116069261 50846756 50846755#0 50846755#0.517 50846755#0.671 50846755#2.0 50846755#2.0.590 50846713#1 50846713#2 -142530979 244626213#3 50846744 50846724#0 -5965599#0"/>
    </vehicle>
    <vehicle id="veh67" depart="54.34" type="CarA" departSpeed="max" departLane="free">
        <route edges="243728741#0 49187078#5.0 49187078#5.22 50846749 50846753 50846753.54 116069186#1 116069186#1.112 116069186#1.128 5982169#0 5982169#0.394 5982169#1 5982169#2 114850085#0 114850085#1"/>
    </vehicle>
    <vehicle id="veh68" depart="56.00" type="CarM" departSpeed="max" departLane="free">
        <route edges="143009954 50846720#0 50846720#1 50846720#2 50846720#3 50846720#4 50846720#4.128 50846720#6 50846720#7 50846720#8 50846720#9 50846720#10 50846720#11 50846720#12 50846765 143655840#0 143655840#1 116069186#1 116069186#1.112 116069186#1.128 5982169#0 5982169#0.394 5982169#1 5982169#2 114850085#0 114850085#1"/>
    </vehicle>
    <vehicle id="veh69" depart="56.00" type="CarM" departSpeed="max" departLane="free">
        <route edges="gneE17.147 49187078#3 49187078#3.591 49187078#5.0 49187078#5.22 50846749 50846753 50846753.54 116069186#1"/>
    </vehicle>
    <vehicle id="veh70" depart="57.00" type="CarM" departSpeed="max" departLane="free">
        <route edges="26524637 114850054#1 116069075#0 116069075#0.376 116069075#1 116069075#1.264 116069075#1.338 26467810 26467810.54 116069261 50846756 50846755#0 50846755#0.517 50846755#0.671 50846755#2.0 50846755#2.0.590 50846755#3 50846755#3.65 50846755#3.145 50846755#4 50846755#5 -89534885"/>
    </vehicle>
    <vehicle id="veh71" depart="57.66" type="CarA" departSpeed="max" departLane="free">
        <route edges="244626184#2 243728742#0 243728742#0.25 243728742#0.50 -50846720#4 -50846720#3 -50846720#2 -50846720#1 -50846720#1.35 -50846720#0 -143009954"/>
    </vehicle>
    <vehicle id="veh72" depart="57.83" type="CarM" departSpeed="max" departLane="free">
        <route edges="5965584 116069075#0 116069075#0.376 116069075#1 116069075#1.264 116069075#1.338 26467810 26467810.54 -50846769 -50846769.75 -50846765 -50846720#12 -50846720#11 -50846720#10 -50846720#9 -50846720#8 -50846720#7 -50846720#6 -50846720#6.20 -50846720#4 -50846720#3 -50846720#2 -50846720#1 -50846720#1.35 142530980 -50846713#1 -5974128"/>
    </vehicle>
    <vehicle id="veh73" depart="60.00" type="CarA" departSpeed="max" departLane="free">
        <route edges="26524637 114850054#1 116069075#0 116069075#0.376 116069075#1 116069075#1.264 116069075#1.338 26467810 26467810.54 116069261 50846756 50846755#0 50846755#0.517 50846755#0.671 243728742#4"/>
    </vehicle>
    <vehicle id="veh74" depart="60.00" type="CarM" departSpeed="max" departLane="free">
        <route edges="5974128 49187078#3 49187078#3.591 49187078#5.0 49187078#5.22 50846749 50846753 50846753.54 116069186#1 116069186#1.112 116069186#1.128 5982169#0 5982169#0.394 5982169#1 5982169#2 114850085#0 114850085#1"/>
    </vehicle>
    <vehicle id="veh75" depart="60.00" type="CarA" departSpeed="max" departLane="free">
        <route edges="50846710#1.45 -50846713#2 -50846713#1 -5974128"/>
    </vehicle>
    <vehicle id="veh76" depart="62.65" type="CarM" departSpeed="max" departLane="free">
        <route edges="5965584 116069075#0 116069075#0.376 116069075#1 116069075#1.264 116069075#1.338 26467810 26467810.54 -50846769 -50846769.75 -50846765 -50846720#12 -50846720#11 -50846720#10 -50846720#9 -50846720#8 -50846720#7 -50846720#6 -50846720#6.20 -50846720#4 -50846720#3 -50846720#2 -50846720#1 -50846720#1.35 142530980 -50846713#1 -5974128"/>
    </vehicle>
    <vehicle id="veh77" depart="63.00" type="CarA" departSpeed="max" departLane="free">
        <route edges="26524637 114850054#1 116069075#0 116069075#0.376 116069075#1 116069075#1.264 116069075#1.338 26467810 26467810.54 116069261 50846756 50846755#0 50846755#0.517 50846755#0.671 243728741#2 243728741#3 243728741#3.83 50846720#6 50846720#7 50846720#8 50846720#9 50846720#10 50846720#11 50846720#12 50846765 143655840#0 143655840#1 116069186#1 116069186#1.112 116069186#1.128 5982169#0 5982169#0.394 5982169#1 5982169#2 114850085#0 114850085#1"/>
    </vehicle>
    <vehicle id="veh78" depart="64.00" type="CarM" departSpeed="max" departLane="free">
        <route edges="143009954 50846720#0 50846720#1 50846720#2 50846720#3 50846720#4 50846720#4.128 50846720#6 50846720#7 50846720#8 50846720#9 50846720#10 50846720#11 50846720#12 50846765 143655840#0 143655840#1 116069186#1 116069186#1.112 116069186#1.128 5982169#0 5982169#0.394 5982169#1 5982169#2 114850085#0 114850085#1"/>
    </vehicle>
    <vehicle id="veh79" depart="64.00" type="CarM" departSpeed="max" departLane="free">